918

C 240.388 -278.225 1.78547 7.99512
C 240.069 -272.81 -2.7051 6.30717
C 242.293 -270.372 -0.875182 11.7322
C 242.671 -272.873 -2.62388 9.89392
C 241.412 -278.7 0.0792294 8.09203
C 241.666 -270.583 -1.4409 11.1063
C 238.409 -279.699 0.247597 8.82785
C 236.954 -275.179 0.697993 1.61623
C 244.1 -275.362 -0.14668 12.2995
C 239.274 -278.208 0.366787 7.23693
C 235.292 -277.506 1.36043 7.73124
C 243.328 -274.604 1.49177 10.5163
C 235.444 -273.155 0.0346025 5.71203
C 243 -277.421 -1.50898 9.56912
C 241.043 -275.674 -1.68668 5.54856
C 245.822 -276.59 0.309087 16.0447
C 238.892 -274.485 -1.59114 1.84767
C 239.429 -273.224 3.08866 4.64411
C 240.895 -276.725 -1.93879 6.16027
C 238.1 -277.763 -1.76742 6.13976
C 241.114 -275.064 0.80597 5.54139
C 241.752 -273.16 1.76304 7.7073
C 237.845 -280.414 0.983122 10.4514
C 235.133 -272.076 0.654482 8.34916
C 240.021 -273.08 -0.627419 5.28432
C 239.38 -277.085 2.97673 4.7683
C 240.694 -272.83 0.330353 5.95935
C 236.591 -274.985 -0.535524 2.22963
C 242.856 -272.346 -1.28444 10.9801
C 239.932 -278.072 0.153069 7.34188
C 238.227 -275.185 0.761769 1.2906
C 238.176 -274.382 2.26502 1.80978
C 238.995 -276.435 0.438035 3.21075
C 242.058 -274.307 2.07315 8.09678
C 242.601 -278.989 0.298724 11.0238
C 244.232 -274.214 0.433439 12.2428
C 241.656 -272.512 -0.936014 7.93564
C 243.973 -276.566 -0.86925 11.953
C 238.795 -274.502 2.62693 1.71039
C 240.392 -277.189 -1.96602 6.34595
C 235.178 -277.656 -0.126135 7.77156
C 241.49 -277.01 -0.585396 7.3849
C 237.426 -270.202 -0.170583 8.80753
C 241.447 -278.604 -1.04984 9.68394
C 237.255 -275.515 -3.79764 1.92742
C 241.567 -276.151 -1.48029 6.4656
C 238.142 -274.687 -0.34494 0.905236
C 238.068 -272.222 -2.02272 5.20847
C 242.166 -272.341 0.618038 9.30485
C 239.002 -276.388 -3.71562 4.42674
C 237.865 -272.498 -0.358121 6.02829
C 238.746 -281.698 -0.11682 12.9628
C 241.432 -279.215 -0.696581 10.2505
C 239.265 -275.646 3.29393 2.53972
C 242.789 -274.814 0.130976 8.86693
C 240.334 -276.484 -1.66094 6.07017
C 238.757 -272.708 -1.92824 3.89542
C 237.718 -273.334 -2.93485 3.66075
C 236.437 -277.458 0.51485 5.61175
C 238.797 -277.904 0.076657 5.65964
C 236.95 -277.638 0.785705 5.5956
C 240.994 -277.912 2.12601 8.05534
C 234.251 -278.607 -0.106883 10.2014
C 244.53 -277.187 -0.551772 12.9069
C 238.263 -271.277 -0.0972291 7.65701
C 235.462 -275.194 -0.0590781 6.07417
C 238.506 -280.138 -1.36826 9.52772
C 238.959 -275.123 -0.391669 1.93952
C 241.58 -274.066 0.858079 7.7403
C 243.259 -272.585 -2.84404 10.7411
C 238.634 -277.338 -1.50483 5.28592
C 241.467 -277.73 -2.0949 8.11378
C 239.16 -269.59 -0.129361 11.7614
C 238.777 -273.389 1.7405 3.32737
C 234.27 -274.998 -1.28343 7.2353
C 240.365 -273.646 -2.50443 5.45165
C 237.973 -274.85 1.23426 1.18999
C 235.492 -274.346 -2.05764 5.1634
C 240.812 -274.865 -2.65639 5.19241
C 242.105 -273.698 1.07435 9.11741
C 239.685 -272.186 -1.72925 6.1724
C 240.968 -274.133 -0.682311 5.19519
C 240.01 -273.325 1.59081 4.63718
C 237.78 -275.614 -2.61046 1.13141
C 239.264 -270.813 0.865233 8.66374
C 240.67 -277.1 -2.52823 6.94356
C 242.488 -275.361 -3.25387 8.30182
C 242.421 -276.747 -1.10906 7.84885
C 237.265 -275.212 -2.79173 1.71732
C 236.115 -274.975 1.40263 3.66309
C 237.938 -279.561 -2.32967 9.2094
C 240.03 -275.342 -0.976378 3.75855
C 237.176 -275.972 -2.88324 2.73197
C 240.677 -272.447 -0.369398 7.49959
C 241.4 -275.1 0.0782374 6.07346
C 237.016 -277.169 0.273991 5.10586
C 240.856 -278.82 -0.321545 8.67788
C 237.178 -274.043 -0.542232 1.99994
C 237.597 -271.297 -0.585261 8.43748
C 233.018 -274.791 -1.1175 8.47169
C 241.784 -277.332 1.24122 8.20712
C 240.538 -273.688 -1.55239 5.81284
C 235.895 -278.521 2.0114 8.09005
C 242.223 -276.18 -1.27371 9.49147
C 237.596 -274.889 -2.27611 0.667387
C 237.068 -276.244 0.248306 3.36829
C 240.44 -277.599 -1.5371 6.62066
C 238.864 -275.662 -0.0752108 1.70966
C 234.416 -272.297 -1.66299 8.56469
C 234.669 -277.639 -2.12817 8.99561
C 239.215 -277.67 -1.69709 6.45638
C 238.765 -274.237 0.372732 1.70992
C 238.831 -271.705 0.284896 6.71167
C 242.751 -277.235 -0.809355 9.54381
C 239.388 -272.677 2.64913 5.32744
C 242.801 -274.941 1.10259 9.192
C 240.251 -272.874 -0.0939368 6.05151
C 235.305 -274.888 0.555103 5.58567
C 238.1 -276.47 -0.0260611 2.8704
C 236.562 -275.617 2.6218 2.79749
C 235.553 -273.176 1.93894 6.11881
C 234.715 -274.564 -0.652566 6.29701
C 240.36 -275.924 -0.0485284 4.55974
C 240.293 -274.826 -1.11289 4.29409
C 235.948 -279.716 -0.551164 9.75824
C 240.397 -272.667 2.82592 6.15966
C 239.578 -274.962 1.35127 2.683
C 238.927 -274.032 -1.17055 1.97795
C 237.527 -272.929 0.0210292 4.62198
C 240.461 -272.792 -0.978746 6.21803
C 240.845 -272.338 0.907904 7.40187
C 240.665 -271.726 0.823315 8.81377
C 236.608 -276.122 1.46302 3.56963
C 238.158 -281.384 -0.870465 12.5456
C 236.125 -273.125 -1.05435 4.43582
C 234.668 -279.858 0.813404 11.115
C 241.827 -275.942 0.800598 7.68898
C 234.419 -274.222 1.18297 7.47511
C 237.604 -275.871 1.23251 1.89288
C 239.672 -278.175 -0.831306 7.42737
C 237.71 -273.657 -1.14892 2.37887
C 242.875 -277.927 0.408541 9.96977
C 238.112 -276.256 -1.45506 1.96647
C 241.283 -278.977 0.898781 9.41148
C 240.817 -276.344 1.72735 5.45621
C 239.752 -275.487 -2.97432 3.54609
C 236.466 -272.406 0.500294 5.36433
C 237.136 -270.385 -1.70566 9.85141
C 236.934 -273.581 1.90688 3.80971
C 241.818 -276.621 -0.198525 7.43276
C 243.122 -275.214 0.622322 8.44691
C 237.879 -277.681 -0.578787 4.54371
C 242.753 -274.047 -0.561396 8.47979
C 234.673 -278.579 -1.6488 7.96577
C 238.546 -277.61 2.85686 5.15028
C 235.469 -272.604 -1.45703 7.86486
C 235.651 -273.894 0.275499 5.96981
C 242.071 -274.392 -0.89138 8.38808
C 239.084 -280.026 0.739567 9.47374
C 237.84 -276.888 -0.402652 3.24648
C 238.762 -277.546 2.14885 5.07019
C 238.092 -276.139 0.457965 1.91118
C 239.127 -278.099 -3.19877 6.45834
C 239.459 -270.287 0.68495 8.08514
C 238.252 -277.695 -0.155036 4.62143
C 236.563 -273.646 -2.07101 3.93719
C 237.339 -272.433 -0.625966 5.05904
C 237.976 -277.683 -1.1542 5.01911
C 242.733 -275.621 0.856085 8.59792
C 242.715 -278.352 1.45131 10.178
C 237.032 -271.5 1.19768 7.83541
C 238.534 -276.477 1.57016 3.4207
C 240.307 -275.965 2.82463 3.81578
C 239.109 -275.724 2.52839 2.52798
C 239.268 -277.076 0.273281 4.42961
C 239.476 -275.281 -1.87189 2.62128
C 240.237 -279.894 0.255718 9.86605
C 241.392 -274.516 -0.104717 6.37043
C 236.095 -273.08 0.360491 5.05666
C 233.783 -274.821 1.15614 8.98566
C 233.746 -271.79 0.658257 10.9828
C 234.449 -277.54 -0.0485972 8.75126
C 237.002 -279.196 -2.74807 7.13595
C 236.044 -274.567 -0.779035 3.00445
C 236.507 -271.762 -0.00415227 6.32178
C 237.027 -272.758 2.42609 4.76321
C 238.88 -276.8 -2.48804 3.33642
C 242.448 -275.012 0.647059 8.37462
C 238.312 -274.182 -0.443773 1.03752
C 233.723 -276.268 -1.72614 8.43518
C 240.228 -281.091 0.948832 12.6961
C 243.707 -274.466 -2.74109 11.0954
C 240.767 -271.269 -0.608173 9.01557
C 240.767 -276.502 3.02666 5.65545
C 236.286 -279.075 -0.0685586 8.42377
C 241.842 -275.111 -3.5295 7.43977
C 238.885 -276.957 0.802524 4.23207
C 235.695 -271.506 -1.36825 8.58993
C 241.667 -273.19 -0.796669 9.07704
C 235.377 -276.583 0.221085 5.80819
C 237.389 -278.636 -1.36949 7.20097
C 234.15 -276.239 -0.874128 7.7475
C 237.108 -276.888 -2.0411 4.44816
C 242.276 -274.089 -2.23514 8.16361
C 238.038 -278.267 1.19319 5.91469
C 239.541 -278.918 1.69719 7.96458
C 238.681 -278.464 0.549029 5.9932
C 239.581 -274.28 1.24514 2.75173
C 237.54 -271.236 0.741622 7.59776
C 239.116 -272.364 -0.509038 5.56561
C 237.556 -273.896 2.24231 2.92048
C 242.266 -277.638 0.404171 9.38861
C 242.448 -280.661 -0.437729 13.2589
C 241.765 -275.144 0.764619 6.46032
C 241.255 -274.918 -2.28316 6.37696
C 236.602 -275.625 -3.26542 3.40776
C 238.95 -274.033 1.34075 3.37367
C 240.64 -277.032 -1.27434 5.69312
C 240.11 -272.479 -2.099 6.69171
C 237.75 -274.181 0.429647 1.76178
C 245.244 -274.564 1.36046 12.1694
C 238.309 -275.06 -2.45533 0.903923
C 241.651 -274.029 -3.35495 7.01122
C 236.879 -278.695 -2.03681 7.08259
C 235.597 -275.103 -3.25888 3.94994
C 241.293 -276.44 2.24669 6.84313
C 239.462 -272.744 0.161689 4.87519
C 235.044 -272.555 0.0885155 7.01612
C 241.757 -273.435 -0.233269 7.26355
C 236.287 -273.608 1.90844 4.25309
C 239.853 -277.38 0.696861 5.41392
C 234.377 -274.139 1.91517 6.99434
C 237.318 -279.43 -1.13784 8.21626
C 241.057 -273.809 -1.14314 6.20157
C 239.378 -271.551 0.618325 7.55501
C 241.682 -274.838 -1.28043 6.06906
C 240.996 -279.047 -1.45973 10.3953
C 242.011 -279.023 1.44691 10.8305
C 241.232 -273.089 -2.04172 8.0427
C 239.836 -275.587 1.51914 3.92843
C 240.788 -278.249 -1.57024 8.34507
C 234.41 -273.862 -2.24656 6.8659
C 234.662 -273.072 -1.23203 7.24561
C 239.945 -277.661 1.40115 5.91715
C 243.916 -272.516 1.53702 11.8948
C 243.179 -273.064 0.196749 10.4242
C 234.521 -273.311 0.121388 7.17897
C 239.078 -280.064 -1.74082 9.07914
C 243.411 -274.818 0.0640829 10.3635
C 236.509 -274.088 -1.12473 3.14666
C 242.237 -274.473 0.800751 8.01917
C 240.681 -280.587 0.998195 11.9164
C 237.508 -272.72 -2.64682 4.04536
C 237.684 -271.132 -2.933 7.06542
C 241.054 -277.912 0.692164 7.59878
C 243.278 -273.718 -2.92723 9.64273
C 239.432 -279.079 -0.325601 7.85593
C 238.989 -277.597 0.542639 6.17913
C 238.637 -277.543 1.08837 5.55276
C 239.443 -271.496 -1.51255 7.36719
C 238.427 -274.336 1.60555 1.78077
C 240.132 -274.781 -2.04693 3.8651
C 240.093 -271.033 -2.78837 8.07136
C 241.85 -274.243 -1.67494 7.00656
C 238.629 -269.807 1.00015 9.02047
C 241.903 -274.22 0.291411 6.94369
C 237.517 -274.953 -1.13813 1.84789
C 237.981 -270.453 -2.45094 8.54923
C 236.057 -272.307 -1.88323 6.42465
C 237.798 -274.374 1.68336 0.894019
C 240.361 -270.482 -0.594583 9.42665
C 243.805 -272.652 -2.02684 11.56
C 244.75 -275.094 0.815262 11.6092
C 236.886 -274.65 -1.10405 2.94659
C 240.827 -275.462 -2.44318 5.18869
C 238.2 -277.135 -2.21408 5.11067
C 239.187 -276.445 2.51226 3.2443
C 237.03 -274.646 -0.27827 2.2346
C 237.837 -275.138 -0.640963 0.795007
C 237.97 -277.739 -2.44489 5.64758
C 235.844 -275.763 -0.701992 4.38613
C 239.808 -273.695 -0.596177 4.05494
C 237.537 -275.296 0.972884 0.960706
C 242.037 -275.12 -0.884336 8.68132
C 243.3 -274.977 -0.995285 10.6944
C 239.937 -269.796 -0.638434 10.8654
C 240.834 -276.088 -2.12819 5.90138
C 237.754 -276.301 -2.77892 2.29856
C 237.953 -276.359 -0.570586 2.31968
C 237.484 -276.064 1.91127 2.23327
C 236.606 -281.95 -0.894339 13.5859
C 237.707 -275.439 1.63433 0.913306
C 235.382 -278.977 -0.140475 9.71491
C 237.62 -275.705 -0.533145 1.86149
C 240.069 -280.267 1.77751 9.79269
C 238.982 -269.888 -1.60136 10.0713
C 239.962 -274.175 -0.930761 3.20755
C 240.953 -274.04 2.26544 6.51629
C 238.717 -274.034 -2.84267 2.18384
C 237.186 -274.486 0.307809 2.15504
C 238.547 -276.704 -1.82246 3.08859
C 237.687 -280.13 -1.33287 9.36756
C 241.871 -278.496 -0.339299 9.48716
C 237.611 -277.956 0.743696 5.89901
C 238.512 -277.114 -0.391943 3.9807
C 241.406 -269.737 -1.32597 11.5059
C 235.655 -272.443 1.79278 5.86483
C 240.717 -280.547 -0.736223 11.3672
C 239.318 -277.886 -0.311396 4.96222
C 242.484 -276.134 1.27694 8.19041
C 240.428 -276.363 1.15921 5.66104
C 242.298 -270.104 0.948212 12.4105
C 242.548 -270.779 0.13008 11.756
C 237.309 -277.69 -1.03148 5.77494
C 240.904 -274.632 -1.06144 5.17364
C 236.984 -280.983 0.223377 11.4217
C 239.978 -275.163 0.988797 3.71721
C 237.833 -276.638 -1.83917 3.25297
C 242.215 -271.27 0.905746 10.5593
C 235.05 -277.854 -1.30279 8.76123
C 239.819 -276.699 2.03486 4.36359
C 239.443 -279.657 1.59104 9.4599
C 237.41 -274.613 -0.692739 1.19807
C 240.336 -272.971 2.17138 5.7255
C 238.519 -273.691 1.15637 2.67954
C 242.123 -272.251 -2.85907 9.72957
C 238.156 -275.833 -0.327507 1.95517
C 236.547 -274.191 -2.80005 3.56146
C 237.828 -281.658 0.171867 12.0686
C 238.313 -280.938 -0.0723013 11.2426
C 239.604 -272.564 0.808294 5.07978
C 239.845 -279.476 -2.89931 9.0781
C 239.015 -276.795 -1.40016 4.11348
C 239.845 -275.711 -1.48553 4.28235
C 235.72 -280.135 -1.34304 11.2523
C 240.893 -275.821 0.0337942 5.33279
C 240.537 -276.501 -1.05065 5.75669
C 236.815 -272.236 1.13701 4.82109
C 234.565 -277.142 1.49404 7.95084
C 236.579 -275.682 0.490638 3.39025
C 243.892 -274.444 -0.37323 10.6085
C 237.717 -272.372 0.337569 5.10736
C 239.821 -270.974 -1.28506 8.49322
C 234.781 -274.917 -2.22947 5.86135
C 240.94 -276.241 -1.4796 4.85258
C 240.499 -277.92 1.16111 7.71182
C 235.917 -274.053 -0.378279 4.68135
C 243.111 -274.462 0.763269 9.99379
C 235.071 -275.486 -1.92515 5.41176
C 240.8 -272.418 -2.79143 6.9729
C 241.539 -278.088 2.61238 8.96201
C 240.851 -270.227 -1.87926 10.8454
C 239.953 -273.906 1.56238 4.00595
C 244.137 -273.318 -1.34112 12.3947
C 241.021 -277.435 -1.72486 6.73918
C 233.751 -274.435 -0.781913 7.54931
C 236.241 -272.547 1.33712 5.81991
C 240.187 -279.652 -1.62702 9.38723
C 241.037 -272.048 2.59472 8.21849
C 238.309 -278.675 1.69985 7.68973
C 237.165 -275.225 -0.523387 1.95051
C 240.295 -271.277 1.47667 8.35614
C 237.989 -273.822 -1.76426 2.6594
C 237.665 -280.271 -2.04373 11.5514
C 240.752 -277.819 -2.16817 7.3059
C 239.441 -273.726 0.92399 3.19603
C 238.195 -273.742 1.7919 3.03435
C 242.126 -275.463 -1.45722 7.5701
C 240.782 -279.623 -0.419788 10.9946
C 238.232 -272.715 0.218328 4.32958
C 233.747 -279.465 -1.15655 12.3769
C 239.398 -278.01 -2.25634 5.88561
C 239.347 -278.231 -1.40645 6.51363
C 239.317 -274.07 -1.83223 3.0652
C 243.862 -275.989 -0.85843 10.359
C 239.934 -278.439 -1.43451 7.38346
C 236.006 -278.414 -2.59817 6.7605
C 238.324 -274.417 3.24351 1.41836
C 238.392 -271.933 -1.40745 6.09595
C 239.101 -273.57 -0.0154444 3.22608
C 242.237 -276.765 1.51002 9.18501
C 242.257 -279.81 -0.863384 11.5605
C 239.816 -273.658 0.358365 4.78588
C 241.026 -273.747 0.831785 6.15261
C 239.999 -271.91 0.739485 7.8172
C 239.743 -271.305 1.15762 8.08487
C 238.543 -276.515 -0.541524 2.63363
C 238.402 -273.458 -2.56292 2.96237
C 241.343 -271.887 0.746114 8.97242
C 239.112 -272.633 1.24711 5.10016
C 239.803 -275.608 0.143118 3.98018
C 235.648 -273.93 2.24807 5.082
C 238.889 -279.117 1.52504 8.21257
C 242.31 -275.061 2.64851 7.94209
C 239.017 -273.277 2.33673 3.3039
C 240.91 -269.514 0.120778 11.223
C 240.985 -271.135 0.301632 8.98139
C 241.082 -277.51 1.34296 6.82663
C 240.597 -276.979 0.339413 5.49371
C 237.592 -278.287 -0.756127 6.82316
C 242.326 -273.769 -0.160889 8.75696
C 238.479 -281.1 -1.66346 12.9662
C 241.531 -275.139 1.45814 6.54859
C 241.36 -273.467 1.17615 7.20285
C 244.844 -276.194 0.232887 13.2253
C 239.098 -270.831 -2.16214 9.04952
C 241.462 -275.577 0.408386 6.3662
C 238.079 -278.292 -2.1652 6.04049
C 237.68 -272.914 2.76074 4.01926
C 244.506 -272.9 -0.631262 11.7177
C 241.507 -276.672 0.948014 7.03488
C 245.168 -276.347 1.14126 12.3039
C 236.717 -276.5 -1.09166 3.41275
C 238.42 -279.748 1.22595 9.52196
C 240.467 -277.475 0.745861 6.19393
C 239.303 -275.976 0.154155 2.3568
C 242.837 -276.069 0.138919 8.1038
C 237.051 -272.282 0.0977798 5.62088
C 242.756 -271.901 0.508444 10.789
C 237.691 -270.852 -1.37329 8.70181
C 240.892 -278.662 2.03021 8.41071
C 239.136 -271.638 -2.86371 7.28381
C 237.553 -271.974 -2.49307 5.31695
C 240.366 -279.134 0.871981 9.07132
C 243.173 -273.774 0.472864 9.46169
C 239.289 -275.281 0.0339458 2.50144
C 235.496 -271.384 -2.20242 7.99468
C 234.634 -276.381 0.473832 7.90233
C 241.798 -275.472 -0.170852 7.33776
C 241.086 -276.16 1.10738 6.1803
C 240.569 -275.783 1.7907 4.93508
C 239.097 -272.172 0.686367 5.68382
C 245.686 -274.626 0.0786325 13.8479
C 235.156 -277.643 -2.85652 6.97732
C 243.917 -274.952 0.575823 11.4782
C 240.47 -275.498 -3.02426 3.87806
C 236.206 -278.255 -1.185 7.50164
C 241.232 -272.453 1.98258 9.24519
C 236.427 -276.143 0.0555089 4.39593
C 242.025 -277.299 -1.30429 8.84228
C 237.836 -272.866 0.809641 3.99771
C 238.047 -274.604 0.720388 1.60729
C 241.087 -273.456 1.72367 6.88175
C 238.049 -271.677 1.08287 6.54581
C 234.852 -279.62 -1.82672 9.12113
C 240.704 -274.476 2.90781 5.70355
C 237.14 -280.145 1.54365 9.73368
C 236.448 -271.196 -1.5439 7.4284
C 243.054 -272.261 2.04768 10.7763
C 242.529 -275.818 -0.445672 8.00897
C 239.693 -271.049 0.306985 8.64658
C 237.335 -274.911 1.58165 1.83426
C 240.355 -272.412 -1.51548 6.79647
C 237.185 -274.093 -1.10692 2.70737
C 237.887 -276.653 -1.08131 2.4615
C 240.239 -274.606 1.18326 4.75032
C 239.747 -275.443 2.65879 3.04905
C 243.491 -275.394 -0.309027 10.8491
C 240.397 -275.776 1.0983 3.82558
C 236.386 -277.116 -0.183634 6.35172
C 238.358 -277.207 -3.51645 3.91757
C 242.382 -278.592 -1.4565 10.8149
C 243.364 -279.131 0.314197 12.5207
C 237.893 -274.874 -1.57366 1.61547
C 242.175 -279.171 -1.87581 11.0702
C 234.362 -278.726 -0.80824 11.203
C 237.672 -277.413 1.883 4.99137
C 239.624 -275.135 0.46674 2.34461
C 238.714 -272.657 2.12109 4.89344
C 237.211 -273.664 -2.57683 2.91971
C 241.792 -276.134 1.49182 6.51887
C 240.197 -276.161 2.19737 4.27252
C 241.643 -279.441 -1.30823 10.0493
C 240.416 -276.158 0.539045 5.24429
C 238.514 -274.271 0.897099 1.05385
C 235.628 -275.994 1.17361 5.26597
C 239.484 -273.727 -1.09455 4.47805
C 241.626 -273.631 -2.49607 7.98546
C 239.919 -271.359 -2.03545 7.41526
C 238.255 -274.491 -2.54088 1.51558
C 241.479 -277.11 2.62379 8.24889
C 240.273 -275.124 1.57991 2.92711
C 238.887 -277.142 -0.860369 4.25296
C 244.69 -274.348 -1.44209 11.5772
C 237.921 -272.223 -3.25219 4.87838
C 243.307 -271.437 0.616622 10.8325
C 240.274 -277.568 0.153845 5.88385
C 239.572 -275.165 -2.43711 3.08042
C 238.895 -273.454 -1.02284 3.35078
C 239.243 -281.565 -0.869368 12.3539
C 239.271 -274.158 -3.2366 2.39619
C 241.825 -277.111 0.57269 8.12386
C 239.707 -275.013 2.05041 3.10911
C 238.563 -280.054 -2.31237 10.3646
C 236.426 -274.943 0.876674 3.00102
C 245.187 -274.421 -0.670419 14.4733
C 241.732 -270.734 -0.0372622 9.95671
C 238.55 -272.542 0.929761 4.39397
C 240.215 -278.692 0.0588772 8.0926
C 244.148 -272.732 -1.56454 11.1466
C 236.257 -274.184 0.280577 3.60247
C 237.01 -270.777 0.469105 7.84189
C 241.099 -273.93 -2.71301 5.31386
C 243.12 -273.126 1.33866 9.65869
C 239.297 -275.694 -0.439555 2.83175
C 233.696 -275.456 -2.00359 8.72069
C 236.738 -272.892 -0.963928 5.36923
C 233.467 -272.895 0.536984 10.1608
C 239.278 -278.749 -0.879293 6.89496
C 235.787 -276.403 -2.02281 5.02883
C 236.715 -274.574 1.41727 2.49777
C 245.023 -275.314 -0.0409226 12.3106
C 233.418 -278.255 -0.928458 10.9429
C 241.078 -276.496 -0.940224 7.05407
C 238.379 -276.049 -3.10521 2.96258
C 238.371 -275.264 -0.271927 0.93119
C 239.265 -280 -1.01466 8.26882
C 244.512 -275.967 -0.574241 12.5467
C 241.031 -274.288 -3.60883 5.44971
C 241.313 -274.689 -1.75145 5.57613
C 238.365 -272.133 0.503556 5.35749
C 239.856 -274.755 -3.07129 2.93343
C 240.104 -273.472 -1.0889 5.28515
C 239.034 -276.226 -0.34255 2.91406
C 242.132 -273.482 -1.99803 9.59759
C 238.613 -279.351 -1.76809 8.22836
C 238.4 -272.874 1.58409 4.26259
C 236.849 -278.772 -0.851528 7.6107
C 243.594 -272.855 0.800421 11.5334
C 240.373 -274.648 -0.0135151 4.16366
C 239.616 -273.266 -0.112599 3.65379
C 240.441 -277.947 2.7389 7.97378
C 240.966 -273.248 -2.75907 6.62464
C 233.257 -274.107 0.923448 9.17174
C 242.673 -276.869 1.01934 9.46176
C 243.206 -276.684 -0.832381 10.7159
C 239.409 -273.391 -1.62283 3.60246
C 241.382 -279.355 0.234187 10.265
C 237.986 -277.585 1.25624 4.88322
C 239.454 -274.783 3.11664 3.11041
C 236.092 -275.981 -2.67564 4.39453
C 235.285 -272.846 -0.679183 6.51018
C 240.529 -270.112 -1.18989 10.4069
C 238.637 -274.784 1.26503 1.62526
C 237.989 -273.801 -0.0684689 2.38136
C 240.202 -274.926 -0.530265 3.44683
C 235.244 -273.848 -1.63537 6.51548
C 233.772 -276.607 1.59143 7.88531
C 241.659 -277.342 0.0224992 8.70747
C 241.807 -280.343 0.164913 11.0276
C 237.807 -279.506 -0.666676 9.83838
C 240.24 -280.553 0.185061 11.0203
C 242.077 -277.226 -0.591314 7.53246
C 238.787 -277.511 -2.17922 5.49484
C 238.241 -277.803 -3.22916 5.10518
C 241.983 -276.053 -3.50749 8.33643
C 242.108 -275.58 0.328599 6.74139
C 239.964 -274.476 -1.5021 3.96758
C 239.6 -278.436 -0.257896 7.40859
C 238.72 -269.947 -2.45077 9.94795
C 239.507 -274.46 2.34674 2.66916
C 239.912 -275.58 -0.418695 2.78478
C 237.03 -275.79 0.976626 2.33583
C 242.381 -277.783 -0.921827 8.90464
C 239.823 -276.227 0.348687 3.46374
C 240.951 -276.169 -3.47382 6.25526
C 241.396 -273.215 0.48702 7.65196
C 236.907 -278.09 -0.72329 6.6849
C 241.987 -277.118 -3.47385 9.4728
C 240.685 -276.485 -2.88365 5.08297
C 239.1 -273.903 -2.37812 2.58535
C 235.921 -275.813 -0.117167 4.19822
C 235.072 -271.854 1.538 9.18372
C 240.525 -277.505 1.69447 6.14293
C 237.597 -273.636 1.6018 3.35584
C 236.145 -274.659 -0.170781 3.74952
C 242.876 -273.493 -1.08583 9.66591
C 239.373 -275.498 1.08268 2.85934
C 240.322 -275.587 0.515377 4.27486
C 236.617 -273.881 1.3218 3.11096
C 243.446 -276.155 -1.32738 10.029
C 238.375 -274.033 -1.05226 2.98033
C 235.013 -274.66 -1.38193 5.31294
C 239.76 -277.705 -1.33096 6.22662
C 240.724 -274.415 -2.23336 5.08997
C 243.38 -273.223 -1.54826 11.2097
C 235.685 -277.059 -1.67931 6.28184
C 239.509 -276.275 -0.702134 2.77683
C 238.531 -276.628 2.18493 3.50305
C 235.135 -276.457 -1.4762 7.0425
C 239.796 -273.931 -2.16341 2.80732
C 243.215 -275.629 -1.05323 8.61802
C 238.474 -279.437 -1.13422 8.4973
C 244.38 -275.95 1.41247 10.4784
C 240.234 -275.256 3.27812 4.62066
C 240.028 -276.235 1.59802 3.83219
C 237.311 -276.277 -2.19984 2.95365
C 241.031 -277.146 1.97843 6.91216
C 239.581 -277.327 -0.787417 4.93511
C 237.958 -271.573 0.4007 7.15084
C 239.525 -272.749 -0.498097 5.25381
C 238.003 -278.644 0.602549 6.78815
C 234.313 -277.874 0.896285 9.19605
C 240.915 -280.116 0.442187 10.4019
C 238.826 -270.32 -0.801919 9.6574
C 237.341 -277.926 -2.11857 4.52863
C 242.485 -275.315 -1.95791 7.55985
C 240.552 -271.325 -0.0810106 7.4779
C 238.713 -273.98 2.07593 2.99142
C 243.27 -277.125 -0.435851 10.3718
C 239.198 -274.586 1.64353 2.42943
C 238.129 -272.857 -2.25412 4.11217
C 242.764 -276.257 -1.02241 8.11778
C 237.407 -280.186 -0.649014 9.04312
C 234.305 -278.798 0.790998 9.10581
C 238.96 -272.861 -0.82857 4.36859
C 238.811 -272.482 -1.26857 5.44428
C 238.27 -273.146 2.21834 3.40021
C 234.525 -279.563 0.101755 11.9593
C 240.932 -273.018 0.896416 6.63623
C 244.533 -273.236 0.452528 10.5236
C 235.227 -274.179 1.48725 6.12312
C 238.015 -274.009 -3.1634 2.12349
C 242.718 -277.578 -0.231273 10.3799
C 237.532 -272.202 0.980257 5.0313
C 233.99 -276.916 -1.89272 9.03971
C 236.771 -276.47 -0.334058 3.56104
C 239.575 -279.489 -1.85012 8.14354
C 234.399 -274.377 -1.71929 7.60251
C 236.664 -276.155 2.13015 3.37253
C 238.895 -275.929 1.86283 2.20913
C 239.05 -279.518 0.0283589 9.37457
C 239.192 -275.699 -1.57685 2.62832
C 237.869 -276.697 1.78928 3.38123
C 238.498 -271.019 -1.35765 8.09577
C 239.504 -272.875 -2.07897 4.14119
C 241.835 -275.233 -2.48519 7.50309
C 239.527 -276.679 0.680632 4.42515
C 234.696 -276.952 -1.39566 7.73695
C 239.344 -272.954 1.79728 4.55616
C 237.284 -276.503 -0.887101 3.49603
C 236.656 -271.231 -0.832956 8.42517
C 235.601 -273.4 0.694472 5.52084
C 234.978 -274.851 2.13581 5.76699
C 238.539 -278.027 -2.52812 5.84751
C 237.876 -273.9 -2.42879 2.82152
C 238.993 -273.394 -2.14236 3.23718
C 235.203 -271.5 -0.469119 9.87545
C 236.286 -276.691 -3.03796 4.37826
C 240.112 -274.692 2.58913 4.42782
C 242.63 -273.474 0.851114 10.2262
C 234.331 -272.48 0.750034 9.41703
C 242.633 -278.471 0.756023 11.2969
C 240.451 -273.759 -0.604025 5.75089
C 239.852 -274.434 -0.415884 3.67028
C 241.141 -274.164 1.42703 6.57995
C 242.675 -272.422 0.0383707 9.782
C 235.842 -278.716 0.552853 8.1671
C 237.227 -275.697 0.402675 1.7788
C 236.6 -277.337 -2.14487 5.67405
C 239.141 -274.881 0.8869 2.70857
C 238.715 -278.166 1.18044 5.72848
C 240.157 -274.092 -0.0467577 4.35824
C 238.614 -270.906 -2.80754 7.29396
C 240.332 -270.738 0.24692 8.7787
C 235.38 -274.497 -0.0823143 5.90615
C 240.561 -273.357 0.578554 6.22217
C 233.616 -275.623 -1.0117 9.00816
C 236.947 -278.389 -2.85053 6.44936
C 244.252 -275.437 1.64303 11.8001
C 234.98 -270.846 -1.59819 9.82822
C 237.355 -274.634 0.934593 1.68066
C 241.295 -276.802 -2.46173 6.17721
C 237.629 -279.362 0.155477 8.9193
C 236.748 -274.997 -1.76968 2.03604
C 242.826 -272.169 1.23828 11.2782
C 242.878 -273.877 -1.89497 10.0255
C 241.489 -272.594 -2.50643 6.8783
C 241.439 -271.486 -0.234475 10.8981
C 234.979 -273.027 -1.84441 7.3435
C 241.836 -272.883 -1.62266 7.73047
C 240.415 -271.89 -1.98408 7.25054
C 239.412 -275.263 -1.13446 2.87624
C 241.77 -276.623 -0.968205 7.21974
C 237.856 -274.91 -2.9452 0.842539
C 238.783 -278.582 -1.2938 6.92236
C 240.155 -277.509 2.24383 5.82918
C 241.715 -273.002 2.751 7.76662
C 235.866 -274.332 -2.68939 5.59155
C 236.851 -274.878 -2.40258 2.75932
C 239.158 -274.708 -0.909949 1.95688
C 237.242 -275.866 2.68811 1.9434
C 244.11 -272.191 -0.368599 12.1449
C 238.332 -273.523 -1.24503 1.76637
C 239.004 -279.364 0.691393 8.56667
C 236.738 -277.023 0.926773 4.587
C 243.423 -271.864 -0.352834 11.4845
C 239.634 -273.314 -2.48425 4.83321
C 242.061 -272.395 1.49035 8.48527
C 238.752 -275.14 -3.7982 1.59586
C 243.849 -274.055 1.93907 11.189
C 237.632 -278.086 -1.51341 5.8037
C 235.206 -273.62 -2.2861 6.44914
C 239.156 -274.327 0.871865 2.67221
C 238.789 -272.226 -3.3172 4.78095
C 239.341 -274.666 -0.284889 2.7471
C 237.155 -277.567 -0.429109 5.84603
C 238.049 -274.937 -3.65778 0.843741
C 236.598 -273.471 -1.29587 3.12838
C 240.059 -274.145 2.26575 4.20971
C 237.084 -278.902 1.25649 8.25118
C 237.518 -277.231 -3.27773 5.23374
C 240.854 -270.977 -2.47809 8.87942
C 242.872 -275.477 1.53885 9.59033
C 238.58 -279.021 0.102573 7.42349
C 240.196 -275.88 -3.65993 3.56895
C 241.572 -273.728 0.318844 7.69573
C 241.479 -270.851 -0.695089 10.5747
C 233.748 -277.792 0.280142 10.4038
C 242.893 -273.876 1.76906 7.87261
C 241.928 -271.855 -2.22475 8.65889
C 236.013 -275.214 -0.305598 4.68689
C 240 -272.989 -1.42362 4.88554
C 236.311 -276.918 -0.852872 5.57347
C 234.908 -278.458 0.293764 9.22827
C 239.843 -278.672 0.618149 8.15411
C 242.011 -268.998 -1.60811 14.9423
C 239.582 -270.38 -2.42744 9.41334
C 240.211 -276.202 -0.602584 4.79186
C 235.877 -274.416 -1.4505 5.17846
C 242.01 -278.26 -1.02112 9.41493
C 239.307 -277.884 1.06795 5.21074
C 245.03 -275.695 0.768027 13.4923
C 240.952 -278.461 1.32798 8.88671
C 242.355 -280.226 -1.71914 13.6063
C 238.382 -275.348 -3.06453 0.972331
C 237.982 -274.035 -3.89947 1.74455
C 235.848 -273.119 -1.72348 5.06356
C 234.783 -273.933 -1.16299 7.41664
C 242.617 -276.603 -0.272764 9.14421
C 236.062 -277.624 -0.391234 5.88925
C 238.796 -276.646 3.00939 4.69105
C 235.175 -272.102 -1.96907 8.63437
C 243.982 -273.32 0.0800527 11.1855
C 237.765 -275.556 0.538553 1.08181
C 244.048 -277.307 -2.2057 11.3133
C 238.929 -273.225 1.05874 4.2617
C 242.765 -279.277 -0.341928 11.66
C 234.836 -273.4 -0.548558 6.69506
C 234.627 -270.696 0.421264 11.4663
C 237.523 -272.69 -1.8931 3.8995
C 241.709 -271.391 -1.72792 9.43388
C 240.893 -270.56 -0.177951 10.4003
C 242.656 -274.181 1.14924 9.69029
C 233.859 -273.564 0.608687 8.74882
C 239.075 -280.707 -1.11893 11.3675
C 238.923 -278.207 -0.707941 6.12746
C 236.96 -274.701 -3.08028 3.39485
C 238.472 -276.368 0.93114 2.40883
C 234.585 -274.721 0.584042 6.63278
C 238.793 -273.783 -1.6563 3.44172
C 240.005 -277.003 -1.4173 5.30121
C 235.578 -277.957 -0.804992 7.94265
C 239.826 -279.31 2.32123 8.92686
C 238.437 -274.755 -1.86721 0.348896
C 244.358 -273.94 -1.1154 14.2193
C 236.092 -274.814 2.42107 3.88051
C 235.238 -273.954 -0.361462 5.86582
C 240.617 -279.319 2.39556 10.1666
C 241.08 -272.59 -1.37129 8.34216
C 242.699 -274.644 1.73628 8.17989
C 240.463 -272.306 1.87677 7.65641
C 240.926 -273.609 -2.04505 6.35061
C 238.648 -275.65 -1.26521 1.48923
C 240.167 -277.097 1.16124 5.10867
C 240.562 -273.588 2.146 5.49212
C 243.138 -278.005 -1.08274 11.4019
C 243.907 -272.094 0.336536 11.9619
C 243.138 -273.482 -0.355788 10.0042
C 239.217 -274.711 0.301501 2.21487
C 238.307 -277.187 1.8203 4.31399
C 236.067 -277.664 2.0334 6.50592
C 242.599 -274.793 -0.785948 8.97917
C 238.783 -274.858 1.98831 1.74809
C 244.087 -278.479 0.599686 13.8969
C 244.739 -276.622 -2.13145 12.8027
C 237.513 -275.518 -1.10575 1.57356
C 237.111 -271.283 -0.27626 8.13349
C 240.154 -276.917 -2.94781 5.09418
C 236.272 -278.623 1.20619 8.77931
C 237.409 -277.032 -1.39741 4.2028
C 242.477 -272.867 1.15131 7.57473
C 238.648 -272.22 1.54288 5.61847
C 237.603 -277.3 -1.91826 5.51124
C 241.579 -279.838 -0.481371 11.4751
C 243.67 -272.881 -0.382258 10.2324
C 240.789 -277.347 2.76873 6.60001
C 238.522 -272.903 2.93075 4.58453
C 243.079 -274.635 -0.391765 8.99614
C 238.341 -275.422 1.3736 1.59833
C 240.5 -279.283 -1.038 9.09814
C 240.974 -271.976 1.57389 7.72092
C 240.022 -276.937 2.73046 6.43506
C 240.717 -273.368 -1.01412 5.69751
C 240.962 -278.471 -2.28677 8.91337
C 237.137 -271.518 -1.39838 7.19828
C 235.692 -275.913 -3.22473 5.05389
C 239.333 -274.144 -0.706198 3.11985
C 237.219 -276.429 1.30676 3.33066
C 237.096 -273.181 -1.64672 4.08837
C 242.254 -277.057 -0.0148289 9.48876
C 239.969 -271.083 -0.529349 8.68236
C 234.169 -277.096 0.815568 9.30335
C 240.086 -272.348 -0.66619 6.50478
C 242.413 -271.566 -0.027147 11.1496
C 243.346 -275.022 -3.19431 9.6889
C 241.764 -275.903 2.37086 6.54566
C 237.72 -276.49 -3.51571 3.20271
C 236.216 -276.306 -0.62605 5.4784
C 242.15 -276.108 -0.0524458 8.07213
C 236.851 -278.215 1.72743 6.85383
C 236.817 -271.148 1.87541 8.36981
C 238.994 -279.495 -0.58962 7.82325
C 236.218 -273.585 0.0134753 4.62896
C 237.871 -275.357 -2.01635 0.945149
C 239.32 -275.444 1.88028 2.17462
C 238.473 -274.552 -3.24091 1.33646
C 235.319 -279.476 -1.36804 10.0189
C 239.46 -271.384 -0.138995 7.53933
C 243.513 -273.94 -1.49029 10.4513
C 239.701 -278.588 -2.12356 6.89603
C 238.337 -273.173 0.781115 3.33176
C 234.637 -271.437 0.0697598 9.86119
C 237.208 -277.92 0.19997 6.6777
C 236.518 -275.613 -0.544284 3.15881
C 237.828 -275.585 2.21777 1.62193
C 237.619 -271.844 -0.184319 6.27158
C 240.353 -270.828 -1.7203 9.64006
C 240.643 -273.679 -3.59132 4.39433
C 244.524 -276.912 1.16038 12.8713
C 236.586 -277.753 -0.0744955 6.3528
C 236.618 -277.674 2.62222 6.01343
C 237.258 -279.545 1.08254 9.40923
C 241.684 -278.298 0.738539 8.9465
C 236.214 -279.305 -2.17107 9.41075
C 241.936 -274.157 1.39186 8.4134
C 241.473 -276.279 -2.10985 6.78174
C 239.933 -276.61 -0.391497 3.93285
C 237.914 -276.756 0.704768 3.51502
C 242.094 -273.128 -1.09651 9.10317
C 242.717 -274.481 -1.77108 8.62497
C 239.636 -278.256 1.55529 6.63892
C 238.654 -274.749 0.615759 1.19213
C 234.919 -280.275 -0.218415 11.4687
C 242.061 -279.313 -0.0271666 11.2461
C 239.8 -279.217 0.279857 7.80848
C 238.296 -273.009 -0.954875 4.29623
C 234.49 -276.004 -1.64294 6.96904
C 238.223 -270.168 -0.315289 8.90669
C 237.148 -274.287 -2.25249 2.58255
C 238.513 -275.425 -1.84953 1.02502
C 239.146 -278.815 -1.7382 7.55017
C 241.668 -277.417 1.90889 7.58126
C 238.351 -270.385 -1.60176 8.2937
C 241.011 -271.871 -1.53405 8.11075
C 239.177 -279.424 -2.48393 8.62091
C 240.001 -271.624 0.0428682 8.11482
C 237.251 -271.783 0.431778 5.84277
C 236.984 -273.471 -0.17525 3.52345
C 241.092 -281.364 0.363504 13.4541
C 241.448 -277.97 -1.45905 8.55156
C 234.276 -271.428 -0.728893 10.2377
C 236.946 -277.054 -0.823272 4.69512
C 236.489 -280.168 -1.02573 10.2758
C 236.835 -278.255 -1.38423 7.31634
C 243.242 -275.999 -0.516927 9.41396
C 237.001 -274.91 2.81281 2.45425
C 236.122 -271.937 0.913715 7.90002
C 239.378 -273.561 1.50221 4.30768
C 242.845 -274.148 -2.62385 9.68573
C 238.944 -275.075 -2.05241 2.14128
C 242.949 -277.222 0.223515 9.28171
C 236.113 -275.55 1.67573 4.73332
C 244.181 -276.105 -1.53457 12.4173
C 236.787 -273.62 0.430683 3.78983
C 236.932 -279.318 2.10073 8.65702
C 234.926 -278.255 1.16556 7.5888
C 238.195 -270.7 0.379153 8.88998
C 238.571 -275.422 2.0669 1.26313
C 238.357 -276.082 -0.947719 1.38708
C 243.47 -279.125 -0.476915 11.8975
C 237.867 -272.523 1.99353 5.05522
C 236.752 -272.93 1.71406 4.72468
C 237.559 -273.567 -0.442344 2.27869
C 237.693 -274.269 -1.38049 1.81374
C 237.304 -281.188 -0.714181 12.4238
C 243.794 -275.754 0.969557 10.2628
C 238.275 -273.768 0.53334 2.18229
C 236.847 -275.229 1.25285 2.69868
C 236.527 -279.843 0.0415792 9.23701
C 238.348 -277.882 1.73379 5.34351
C 238.054 -279.404 0.702613 8.29799
C 239.074 -279.31 -1.24324 8.37416
C 235.669 -275.318 0.918378 4.9459
C 238.637 -272.093 -0.825815 6.13489
C 243.497 -276.83 -1.59363 11.6005
C 241.327 -275.795 1.76892 5.50815
C 240.608 -271.62 -2.98246 8.8369
C 236.897 -273.611 2.63761 3.9502
C 239.33 -271.812 -2.20738 6.66523
C 237.436 -273.102 -3.62081 3.75857
C 237.987 -273.208 1.32385 3.90854
C 239.194 -275.532 0.559479 3.05869
C 240.342 -271.471 2.34706 8.36437
C 241.677 -273.774 1.87705 7.21744
C 240.244 -273.503 -0.0731202 5.0332
C 237.564 -277.148 -0.830682 3.92153
C 241.011 -278.515 0.473723 7.8846
