185

C -261.037 -147.363 1.91684 0
C -260.788 -148.941 1.68229 0
C -261.045 -147.474 0.906088 0
C -260.03 -146.815 0.835662 0
C -259.654 -148.81 1.63458 0
C -261.055 -149.809 1.30225 0
C -261.703 -148.461 0.0433588 0
C -260.29 -148.462 0.0973622 0
C -260.273 -148.856 0.460125 0
C -258.998 -148.569 -0.204795 0
C -259.885 -148.454 -0.742608 0
C -259.403 -148.789 1.02302 0
C -259.197 -147.499 0.532141 0
C -261.303 -147.698 0.513978 0
C -259.682 -149.333 -0.276402 0
C -259.419 -148.883 0.0510638 0
C -259.473 -148.335 0.021685 0
C -260.494 -148.144 0.911045 0
C -260.42 -147.057 -0.118677 0
C -259.722 -149.835 1.29304 0
C -261.625 -148.736 -0.456265 0
C -259.67 -148.416 1.23478 0
C -260.84 -147.856 1.68519 0
C -261.024 -146.911 0.761971 0
C -259.851 -147.789 -0.616336 0
C -261.884 -148.783 1.05232 0
C -259.856 -147.227 -0.344238 0
C -261.365 -148.972 0.988794 0
C -260.806 -148.767 -0.273492 0
C -260.198 -148.358 0.56903 0
C -261.749 -148.361 1.4893 0
C -260.013 -148.027 1.14958 0
C -260.155 -148.487 1.04719 0
C -260.859 -148.916 1.10675 0
C -261.211 -148.689 1.44184 0
C -260.745 -147.393 1.3533 0
C -258.926 -148.348 0.331751 0
C -261.269 -147.569 1.4345 0
C -258.953 -148.032 1.46979 0
C -260.085 -147.642 -0.0522822 0
C -259.382 -148.563 0.543964 0
C -260.355 -148.522 -0.412842 0
C -259.903 -149.107 0.190573 0
C -260.713 -149.081 0.616297 0
C -259.383 -147.411 1.5921 0
C -259.258 -148.209 0.958798 0
C -260.085 -149.05 -0.599791 0
C -259.598 -149.285 1.09603 0
C -260.876 -147.763 -0.831802 0
C -261.184 -149.248 1.44786 0
C -259.287 -149.445 0.170121 0
C -260.847 -149.543 1.82081 0
C -261.365 -148.46 1.9399 0
C -261.458 -147.161 0.456619 0
C -259.512 -146.989 0.532448 0
C -259.86 -149.663 0.238773 0
C -260.249 -149.582 1.79728 0
C -258.813 -147.95 0.726172 0
C -261.557 -147.259 1.0416 0
C -260.985 -147.876 -0.292893 0
C -260.672 -148.282 0.465476 0
C -259.945 -147.396 1.87877 0
C -260.811 -149.711 -0.168576 0
C -260.069 -149.872 0.775016 0
C -259.634 -147.76 0.856076 0
C -260.326 -147.454 0.387073 0
C -262.032 -148.06 0.291501 0
C -261.691 -148.95 1.58478 0
C -261.039 -148.116 0.743375 0
C -261.549 -148.176 0.56226 0
C -259.462 -147.829 2.00556 0
C -259.511 -149.094 0.562036 0
C -260.494 -148.67 1.35202 0
C -260.347 -148.964 -0.0683938 0
C -260.239 -149.511 -0.206477 0
C -260.231 -149.046 1.61177 0
C -259.395 -148.172 -0.513749 0
C -261.371 -149.535 0.11659 0
C -261.414 -147.886 1.01497 0
C -259.021 -147.856 0.0137513 0
C -259.389 -148.008 0.448876 0
C -259.949 -148.997 2.12582 0
C -259.886 -148.07 0.273588 0
C -259.378 -147.284 0.00791076 0
C -259.081 -148.597 1.42906 0
C -259.569 -147.796 -0.0979302 0
C -260.825 -148.396 1.68848 0
C -260.401 -148.119 1.92127 0
C -258.951 -148.944 0.374454 0
C -259.872 -148.774 0.754736 0
C -260.618 -149.323 1.33468 0
C -259.495 -149.676 0.706371 0
C -260.386 -148.648 1.92001 0
C -259.454 -148.826 -0.543644 0
C -261.231 -147.454 -0.0221906 0
C -260.484 -148.727 -0.915321 0
C -260.872 -149.605 0.418595 0
C -260.37 -148.396 2.43977 0
C -260.88 -148.651 2.21619 0
C -260.58 -146.75 1.13941 0
C -261.114 -146.985 1.37157 0
C -259.884 -147.553 1.31275 0
C -261.786 -147.543 0.08195 0
C -260.488 -147.077 1.77546 0
C -261.821 -147.77 1.38939 0
C -261.44 -147.873 1.90813 0
C -260.856 -147.883 1.16223 0
C -259.976 -147.065 0.233892 0
C -261.007 -149.394 0.933056 0
C -260.554 -147.254 0.833569 0
C -259.93 -147.979 1.67655 0
C -260.877 -148.397 1.14323 0
C -260.729 -148.725 0.259991 0
C -260.013 -147.871 2.26618 0
C -260.064 -148.465 1.56168 0
C -261.096 -148.782 -0.767519 0
C -260.43 -147.983 -0.312536 0
C -259.957 -148.185 -0.220818 0
C -260.367 -149.358 0.320508 0
C -260.368 -147.49 -0.572622 0
C -260.566 -148.621 0.800883 0
C -261.04 -148.651 0.687993 0
C -259.455 -148.303 1.72334 0
C -260.433 -149.887 1.30361 0
C -260.822 -148.297 -0.640133 0
C -261.379 -149.738 0.694113 0
C -261.953 -148.203 0.950501 0
C -258.854 -148.608 0.886814 0
C -260.742 -148.295 -0.0494212 0
C -260.924 -147.267 -0.45545 0
C -259.527 -147.22 1.0331 0
C -260.385 -147.964 0.22659 0
C -261.235 -148.141 1.44573 0
C -259.926 -148.902 1.22961 0
C -261.431 -147.98 0.0551595 0
C -260.641 -149.229 -0.539359 0
C -260.919 -147.893 0.23904 0
C -261.641 -149.447 1.18457 0
C -260.531 -149.152 2.16724 0
C -259.754 -148.258 0.753602 0
C -260.662 -147.762 0.651953 0
C -259.319 -148.76 2.07289 0
C -261.148 -148.369 0.281864 0
C -261.531 -148.704 0.532471 0
C -259.505 -147.921 1.34498 0
C -260.926 -148.063 2.20367 0
C -262.08 -148.65 0.497868 0
C -261.743 -149.06 0.074062 0
C -260.376 -147.679 1.07981 0
C -261.207 -149.139 0.489381 0
C -260.983 -146.904 0.0892899 0
C -259.992 -149.292 0.697442 0
C -259.801 -146.927 1.47451 0
C -259.72 -149.362 1.69099 0
C -260.485 -149.509 0.829628 0
C -261.519 -147.961 -0.516068 0
C -261.846 -147.652 0.710269 0
C -259.884 -148.711 -0.200237 0
C -259.867 -148.417 2.09075 0
C -259.758 -147.566 0.377305 0
C -261.251 -149.067 2.00064 0
C -259.105 -147.6 1.08796 0
C -260.101 -149.424 1.22479 0
C -261.762 -149.239 0.633815 0
C -260.245 -147.178 1.27425 0
C -260.527 -147.59 2.1438 0
C -261.403 -148.432 1.01206 0
C -260.484 -146.861 0.449534 0
C -259.041 -149.236 0.892714 0
C -260.4 -149.923 0.265694 0
C -260.867 -147.354 0.396118 0
C -259.195 -149.165 1.48831 0
C -260.753 -150.017 0.791943 0
C -260.129 -147.863 0.668467 0
C -259.836 -148.589 0.296525 0
C -260.815 -149.199 0.0669177 0
C -260.454 -148.148 1.40012 0
C -260.34 -149.014 0.977462 0
C -261.222 -149.216 -0.353854 0
C -261.22 -148.395 -0.267565 0
C -260.013 -147.367 0.8007 0
C -260.319 -148.077 -0.861316 0
C -261.226 -148.83 0.070261 0
C -260.348 -147.663 1.59738 0
C -260.629 -147.557 -0.0382379 0
