76

C 487.966 540.373 3.52508 0
C 487.7 540.439 4.93481 0
C 487.949 539.609 4.47916 0
C 486.606 539.602 3.8119 0
C 488.529 540.378 4.30874 0
C 487.758 539.034 4.28303 0
C 487.137 539.509 5.102 0
C 487.012 541.204 4.75827 0
C 487.162 540.173 5.23466 0
C 487.161 539.158 3.97892 0
C 488.503 540.605 3.32737 0
C 487.241 540.525 3.3661 0
C 487.275 540.843 5.24818 0
C 488.011 540.928 5.26494 0
C 488.463 539.434 3.4026 0
C 488.786 539.263 4.22274 0
C 488.453 540.072 3.74417 0
C 488.299 539.139 4.62865 0
C 486.696 540.813 4.31362 0
C 488.493 539.81 4.35562 0
C 487.671 540.39 5.55656 0
C 487.568 541.407 3.75673 0
C 487.089 539.849 4.04452 0
C 488.234 539.678 5.03916 0
C 488.942 540.434 3.8372 0
C 488.243 540.641 3.92968 0
C 488.843 540.044 3.25274 0
C 488.584 541.038 4.34751 0
C 487.634 541.529 4.38829 0
C 487.234 540.567 4.64468 0
C 487.747 539.731 5.46887 0
C 487.324 539.508 3.46815 0
C 487.868 540.626 3.00396 0
C 487.747 540.55 4.31899 0
C 488.312 538.89 3.93588 0
C 487.164 540.438 4.07936 0
C 488.011 540.098 4.07572 0
C 487.975 541.047 4.19472 0
C 488.921 539.701 3.80587 0
C 488.18 540.702 4.6648 0
C 487.311 540.999 4.24171 0
C 488.223 539.494 3.96836 0
C 486.986 541.013 3.73766 0
C 487.86 539.425 3.05889 0
C 487.485 541.081 3.26903 0
C 486.576 539.87 4.96185 0
C 488.193 541.369 4.76083 0
C 487.65 541.028 4.76474 0
C 487.631 539.596 3.98865 0
C 487.948 539.784 3.54565 0
C 488.221 540.277 5.25534 0
C 486.578 540.158 4.31302 0
C 488.227 540.036 3.04559 0
C 487.211 538.94 4.64947 0
C 487.363 539.509 4.50114 0
C 488.728 541.034 3.74372 0
C 487.622 539.873 4.91041 0
C 487.619 540.74 3.79324 0
C 488.281 541.536 3.98492 0
C 488.811 539.564 4.83517 0
C 487.546 540.06 4.36756 0
C 487.752 539.228 4.97177 0
C 486.696 540.553 4.92848 0
C 487.779 539.094 3.63273 0
C 489.082 540.008 4.34665 0
C 486.964 539.983 3.41293 0
C 488.637 540.816 5.02508 0
C 487.066 540.022 4.64314 0
C 488.098 540.138 4.6504 0
C 487.508 540.13 3.75482 0
C 486.668 540.421 3.73721 0
C 487.553 540.032 3.11394 0
C 489.057 540.656 4.48404 0
C 488.098 541.078 3.50809 0
C 488.696 540.192 4.87417 0
C 486.751 539.46 4.45327 0
