1002

C 277.783 262.157 -2.04302 0.8 0.2 0
C -118.975 344.288 -5.99701 0.6 0.4 0
C 544.334 -138.675 2.37176 0 0 1
C 274.003 252.58 -0.521287 0.4 0.6 0
C 275.39 253.096 -0.313926 0.4 0.6 0
C 275.621 252.388 -1.04026 0.4 0.6 0
C 487.966 540.373 3.52508 0.2 0.8 0
C -261.037 -147.363 1.91684 0 1 0
C -257.266 -487.227 -16.8596 1 0 0
C -142.383 -179.239 -4.62848 0 0.8 0.2
C 456.203 -691.042 32.0479 0 0.6 0.4
C -260.788 -148.941 1.68229 0 1 0
C -119.324 346.392 -5.82301 0.6 0.4 0
C 274.373 251.032 -0.168269 0.4 0.6 0
C -261.045 -147.474 0.906088 0 1 0
C 452.071 -697.682 26.5928 1 0 0
C -119.32 345.529 -5.37271 0.6 0.4 0
C 224.453 545.436 80.2831 0 0.4 0.6
C 274.885 253.538 -0.424111 0.4 0.6 0
C 276.349 252.085 0.525156 0.4 0.6 0
C 277.495 261.452 -0.0429782 0.8 0.2 0
C 231.436 376.976 -49.7625 1 0 0
C -456.137 62.7705 -18.0113 1 0 0
C 454.535 -691.818 32.7299 0 0.6 0.4
C -645.765 278.681 51.8774 1 0 0
C -260.03 -146.815 0.835662 0 1 0
C -118.076 345.165 -4.59872 0.6 0.4 0
C -140.762 -178.173 -3.60474 0 0.8 0.2
C 273.976 252.572 0.180882 0.4 0.6 0
C -259.654 -148.81 1.63458 0 1 0
C -261.055 -149.809 1.30225 0 1 0
C -119.532 344.12 -5.27564 0.6 0.4 0
C -261.703 -148.461 0.0433588 0 1 0
C 92.6483 -625.231 -9.923 1 0 0
C 274.24 251.25 0.427917 0.4 0.6 0
C -393.049 273.016 100.111 1 0 0
C 487.7 540.439 4.93481 0.2 0.8 0
C -192.023 -166.116 -19.7306 1 0 0
C -142.874 -179.006 -4.23707 0 0.8 0.2
C -142.22 -179.76 -3.61286 0 0.8 0.2
C 274.352 251.852 0.963837 0.4 0.6 0
C 275.831 251.888 -0.990521 0.4 0.6 0
C -260.29 -148.462 0.0973622 0 1 0
C 454.206 -691.253 32.3999 0 0.6 0.4
C -142.258 -178.394 -3.32828 0 0.8 0.2
C 455.55 -691.213 31.0269 0 0.6 0.4
C -260.273 -148.856 0.460125 0 1 0
C 487.949 539.609 4.47916 0.2 0.8 0
C 456.997 -184.625 -4.05133 0 0.2 0.8
C 225.379 546.162 80.8614 0 0.4 0.6
C -489.768 -581.876 59.9494 1 0 0
C -258.998 -148.569 -0.204795 0 1 0
C 225.106 545.502 80.6419 0 0.4 0.6
C -20.9586 327.129 4.76357 1 0 0
C 458.388 -183.708 -3.5127 0 0.2 0.8
C -105.575 -630.194 -13.8425 1 0 0
C 486.606 539.602 3.8119 0.2 0.8 0
C -274.282 248.752 24.9807 1 0 0
C -259.885 -148.454 -0.742608 0 1 0
C 488.529 540.378 4.30874 0.2 0.8 0
C 457.173 -184.197 -4.66659 0 0.2 0.8
C -414.678 229.417 1.45391 1 0 0
C 275.152 253.309 -0.883081 0.4 0.6 0
C -259.403 -148.789 1.02302 0 1 0
C -259.197 -147.499 0.532141 0 1 0
C 487.758 539.034 4.28303 0.2 0.8 0
C -261.303 -147.698 0.513978 0 1 0
C -118.747 344.984 -4.65894 0.6 0.4 0
C 438.844 187.37 65.8119 1 0 0
C -118.656 345.141 -6.75375 0.6 0.4 0
C 455.169 -691.461 31.9051 0 0.6 0.4
C -259.682 -149.333 -0.276402 0 1 0
C 543.872 -138.527 2.95079 0 0 1
C -141.909 -178.72 -3.75052 0 0.8 0.2
C 275.909 251.469 0.111088 0.4 0.6 0
C 276.039 252.04 -0.476977 0.4 0.6 0
C 487.137 539.509 5.102 0.2 0.8 0
C -259.419 -148.883 0.0510638 0 1 0
C 456.063 -691.168 32.7155 0 0.6 0.4
C -259.473 -148.335 0.021685 0 1 0
C 454.618 -691.126 31.8909 0 0.6 0.4
C -260.494 -148.144 0.911045 0 1 0
C -142.778 333.007 -2.53917 1 0 0
C -118.698 343.673 -5.17066 0.6 0.4 0
C -120.528 345.259 -4.86202 0.6 0.4 0
C -260.42 -147.057 -0.118677 0 1 0
C -259.722 -149.835 1.29304 0 1 0
C 224.775 546.552 79.8413 0 0.4 0.6
C 274.128 253.125 -0.114877 0.4 0.6 0
C -261.625 -148.736 -0.456265 0 1 0
C 639.079 174.379 97.0864 1 0 0
C 487.012 541.204 4.75827 0.2 0.8 0
C -55.4165 -305.961 6.01532 1 0 0
C 455.689 -691.763 32.7476 0 0.6 0.4
C -259.67 -148.416 1.23478 0 1 0
C -119.489 345.824 -5.81438 0.6 0.4 0
C -260.84 -147.856 1.68519 0 1 0
C 487.162 540.173 5.23466 0.2 0.8 0
C 128.905 -708.405 -74.0555 1 0 0
C 458.187 -184.709 -4.24959 0 0.2 0.8
C -141.584 -179.615 -3.20709 0 0.8 0.2
C 12.5131 -150.242 -25.9278 1 0 0
C -261.024 -146.911 0.761971 0 1 0
C 583.563 246.14 -63.2282 1 0 0
C -232.706 -230.943 -50.8603 1 0 0
C -259.851 -147.789 -0.616336 0 1 0
C -119.166 345.539 -6.78036 0.6 0.4 0
C 275.289 252.6 1.19406 0.4 0.6 0
C 278.052 261.9 0.101948 0.8 0.2 0
C -120.166 343.951 -5.88164 0.6 0.4 0
C -248.047 -148.5 -11.805 1 0 0
C 458.119 -183.256 -4.05915 0 0.2 0.8
C 276.562 252.208 -0.521347 0.4 0.6 0
C 276.467 253.1 0.754879 0.4 0.6 0
C 276.338 251.784 -0.83653 0.4 0.6 0
C 455.125 -690.851 32.1163 0 0.6 0.4
C -261.884 -148.783 1.05232 0 1 0
C 9.91267 -465.927 38.3604 1 0 0
C 274.215 252.455 0.753038 0.4 0.6 0
C 487.161 539.158 3.97892 0.2 0.8 0
C -120.189 345.518 -6.41004 0.6 0.4 0
C 457.598 -184.928 -3.80389 0 0.2 0.8
C 275.804 253.305 0.0250386 0.4 0.6 0
C 276.77 252.645 -0.192774 0.4 0.6 0
C -120.324 345.865 -5.09029 0.6 0.4 0
C 74.5324 -451.145 12.3939 1 0 0
C 275.17 252.378 -1.41472 0.4 0.6 0
C -259.856 -147.227 -0.344238 0 1 0
C 278.818 261.383 -1.20654 0.8 0.2 0
C -141.911 -177.924 -2.9645 0 0.8 0.2
C -261.365 -148.972 0.988794 0 1 0
C 455.334 -691.708 31.3848 0 0.6 0.4
C -120.018 343.797 -5.28179 0.6 0.4 0
C 275.965 252.847 -1.03534 0.4 0.6 0
C 488.503 540.605 3.32737 0.2 0.8 0
C 456.56 -184.105 -4.23751 0 0.2 0.8
C -416.017 237.557 -2.85483 1 0 0
C -260.806 -148.767 -0.273492 0 1 0
C 105.207 497.852 158.72 1 0 0
C -118.573 344.544 -5.00698 0.6 0.4 0
C 490.244 -354.788 -18.6343 1 0 0
C -260.198 -148.358 0.56903 0 1 0
C -333.928 -119.822 -17.0808 1 0 0
C -119.124 343.739 -6.16409 0.6 0.4 0
C -261.749 -148.361 1.4893 0 1 0
C -141.921 -178.63 -4.83391 0 0.8 0.2
C 275.9 253.015 1.09909 0.4 0.6 0
C 275.747 250.525 -0.823928 0.4 0.6 0
C -260.013 -148.027 1.14958 0 1 0
C 455.099 -691.605 33.0086 0 0.6 0.4
C -141.756 -179.338 -3.76476 0 0.8 0.2
C 455.412 -691.942 30.7977 0 0.6 0.4
C -260.155 -148.487 1.04719 0 1 0
C 487.241 540.525 3.3661 0.2 0.8 0
C 390.703 -436.097 -81.3424 1 0 0
C -118.953 345.877 -5.60353 0.6 0.4 0
C 224.171 546.433 80.9775 0 0.4 0.6
C 275.385 251.98 1.2834 0.4 0.6 0
C -119.405 346.114 -5.29103 0.6 0.4 0
C -260.859 -148.916 1.10675 0 1 0
C -153.98 -149.442 -11.2213 1 0 0
C -237.088 194.841 37.9478 1 0 0
C 278.389 262.484 -1.55069 0.8 0.2 0
C 487.275 540.843 5.24818 0.2 0.8 0
C -261.211 -148.689 1.44184 0 1 0
C 545.057 -137.227 3.10961 0 0 1
C 454.536 -690.594 32.2821 0 0.6 0.4
C -260.745 -147.393 1.3533 0 1 0
C 488.011 540.928 5.26494 0.2 0.8 0
C 488.463 539.434 3.4026 0.2 0.8 0
C 458.272 -183.942 -4.23446 0 0.2 0.8
C 454.599 -691.721 32.0898 0 0.6 0.4
C 234.627 283.927 -4.34438 1 0 0
C -289.437 -177.616 -18.328 1 0 0
C 224.87 546.622 80.638 0 0.4 0.6
C 276.021 252.933 0.415403 0.4 0.6 0
C 276.893 251.88 0.574405 0.4 0.6 0
C 277.961 262.006 -1.43253 0.8 0.2 0
C -119.192 346.273 -4.74518 0.6 0.4 0
C 431.109 -103.326 -49.201 1 0 0
C 544.537 -138.254 2.89413 0 0 1
C -141.325 -178.451 -3.65692 0 0.8 0.2
C 276.925 251.699 -0.642038 0.4 0.6 0
C 276.853 253.036 0.253809 0.4 0.6 0
C 488.786 539.263 4.22274 0.2 0.8 0
C -258.926 -148.348 0.331751 0 1 0
C -261.269 -147.569 1.4345 0 1 0
C 273.414 267.608 -20.4243 1 0 0
C -118.953 344.79 -4.05724 0.6 0.4 0
C -258.953 -148.032 1.46979 0 1 0
C 488.453 540.072 3.74417 0.2 0.8 0
C -119.154 344.179 -6.63603 0.6 0.4 0
C 380.338 -387.351 27.1128 1 0 0
C 276.302 251.188 -0.100925 0.4 0.6 0
C -260.085 -147.642 -0.0522822 0 1 0
C -259.382 -148.563 0.543964 0 1 0
C -119.043 345.615 -6.11849 0.6 0.4 0
C -260.355 -148.522 -0.412842 0 1 0
C -259.903 -149.107 0.190573 0 1 0
C 488.299 539.139 4.62865 0.2 0.8 0
C -260.713 -149.081 0.616297 0 1 0
C 275.628 251.208 0.51191 0.4 0.6 0
C 274.865 252.85 -1.12241 0.4 0.6 0
C 486.696 540.813 4.31362 0.2 0.8 0
C -206.676 -109.393 10.93 1 0 0
C 458.019 -184.328 -3.64827 0 0.2 0.8
C -141.347 -178.923 -3.99763 0 0.8 0.2
C 454.344 -692.18 31.6491 0 0.6 0.4
C -259.383 -147.411 1.5921 0 1 0
C -119.602 344.68 -5.22012 0.6 0.4 0
C -119.983 344.406 -4.36036 0.6 0.4 0
C 334.968 766.611 -14.4563 1 0 0
C 275.387 251.542 0.179949 0.4 0.6 0
C 0.494919 6.68862 -1.3475 1 0 0
C 437.79 685.549 51.1682 1 0 0
C -168.592 -656.641 -49.7457 1 0 0
C -259.258 -148.209 0.958798 0 1 0
C -302.666 -59.8359 4.26476 1 0 0
C -39.9797 -589.681 -10.8089 1 0 0
C 263.839 320.994 -14.2027 1 0 0
C 488.493 539.81 4.35562 0.2 0.8 0
C 487.671 540.39 5.55656 0.2 0.8 0
C 455.586 -691.944 31.9817 0 0.6 0.4
C -119.109 345.419 -4.6073 0.6 0.4 0
C 122.878 -34.0537 55.293 1 0 0
C 487.568 541.407 3.75673 0.2 0.8 0
C 287.787 255.428 10.5159 1 0 0
C 455.973 -691.788 31.1557 0 0.6 0.4
C -118.364 345.164 -5.67394 0.6 0.4 0
C -260.085 -149.05 -0.599791 0 1 0
C 285.101 202.179 51.753 1 0 0
C -259.598 -149.285 1.09603 0 1 0
C -118.392 345.083 -5.09381 0.6 0.4 0
C -142.184 -179.616 -2.99193 0 0.8 0.2
C 441.869 -295.926 11.0686 1 0 0
C -260.876 -147.763 -0.831802 0 1 0
C -261.184 -149.248 1.44786 0 1 0
C 543.627 -138.148 3.55901 0 0 1
C -166.757 -218.46 -61.789 1 0 0
C 276.785 252.123 -1.06035 0.4 0.6 0
C 487.089 539.849 4.04452 0.2 0.8 0
C -259.287 -149.445 0.170121 0 1 0
C -142.861 -178.339 -4.21035 0 0.8 0.2
C 455.014 -692.079 31.7844 0 0.6 0.4
C 517.637 -158.205 -27.9551 1 0 0
C -148.719 -610.462 25.4847 1 0 0
C -120.36 343.993 -4.73761 0.6 0.4 0
C -63.2021 396.75 41.557 1 0 0
C 277.172 261.569 -0.700742 0.8 0.2 0
C -120.532 344.512 -5.92236 0.6 0.4 0
C 416.097 -22.4224 18.5945 1 0 0
C -406.86 423.996 19.9259 1 0 0
C -266.087 -210.572 -22.209 1 0 0
C 488.234 539.678 5.03916 0.2 0.8 0
C -260.847 -149.543 1.82081 0 1 0
C 453.684 -699.562 24.0727 1 0 0
C -261.365 -148.46 1.9399 0 1 0
C 289.485 250.602 8.57407 1 0 0
C -247.307 -630.549 -25.668 1 0 0
C -120.265 345.343 -5.43 0.6 0.4 0
C -269.403 309.643 -44.165 1 0 0
C -141.786 -178.099 -3.61571 0 0.8 0.2
C 274.833 250.584 -0.160104 0.4 0.6 0
C -261.458 -147.161 0.456619 0 1 0
C -259.512 -146.989 0.532448 0 1 0
C -519.763 -123.379 20.3686 1 0 0
C 106.804 317.274 1.02978 1 0 0
C 638.421 416.069 113.606 1 0 0
C -259.86 -149.663 0.238773 0 1 0
C 545.109 -137.407 2.37219 0 0 1
C 275.955 250.413 -0.187212 0.4 0.6 0
C 275.906 253.079 -0.49574 0.4 0.6 0
C 488.942 540.434 3.8372 0.2 0.8 0
C -260.249 -149.582 1.79728 0 1 0
C 456.987 -183.483 -4.50956 0 0.2 0.8
C -142.123 -179.041 -3.30453 0 0.8 0.2
C 454.063 -690.8 31.8182 0 0.6 0.4
C -258.813 -147.95 0.726172 0 1 0
C -120.486 344.284 -5.33091 0.6 0.4 0
C -120.55 345.234 -5.96872 0.6 0.4 0
C 418.527 -138.769 30.1885 1 0 0
C 275.825 250.917 0.0736724 0.4 0.6 0
C 275.435 251.087 -0.77324 0.4 0.6 0
C -119.213 345.116 -6.37192 0.6 0.4 0
C 450.896 -697.489 33.0729 1 0 0
C 224.867 546.4 81.3411 0 0.4 0.6
C -115.438 345.599 -14.5155 1 0 0
C 275.93 251.35 -0.927031 0.4 0.6 0
C 488.243 540.641 3.92968 0.2 0.8 0
C 520.283 519.143 199.404 1 0 0
C -146.93 -178.233 0.242935 1 0 0
C -248.805 -495.799 26.0545 1 0 0
C -261.557 -147.259 1.0416 0 1 0
C -119.497 345.892 -4.31915 0.6 0.4 0
C -36.1743 197.535 -1.36967 1 0 0
C 275.745 252.774 -0.0351048 0.4 0.6 0
C -260.985 -147.876 -0.292893 0 1 0
C 113.254 120.709 73.7483 1 0 0
C -91.901 458.285 14.3541 1 0 0
C -159.664 -91.4949 4.31931 1 0 0
C 274.459 251.509 -1.0883 0.4 0.6 0
C 277.68 261.523 -1.13754 0.8 0.2 0
C -120.112 344.904 -5.77476 0.6 0.4 0
C -260.672 -148.282 0.465476 0 1 0
C -141.829 -179.036 -4.3098 0 0.8 0.2
C 275.018 251.475 -0.834155 0.4 0.6 0
C -255.63 -124.736 0.464968 1 0 0
C 488.843 540.044 3.25274 0.2 0.8 0
C -119.528 345.702 -4.8794 0.6 0.4 0
C 454.85 -692.16 31.1335 0 0.6 0.4
C 454.028 -691.972 32.2494 0 0.6 0.4
C 488.584 541.038 4.34751 0.2 0.8 0
C 752.989 298.214 -44.0605 1 0 0
C 394.519 -343.881 26.5436 1 0 0
C 275.157 251.553 -0.262478 0.4 0.6 0
C -259.945 -147.396 1.87877 0 1 0
C 278.097 261.298 -0.367172 0.8 0.2 0
C -260.811 -149.711 -0.168576 0 1 0
C -208.172 -143.13 39.5521 1 0 0
C 275.092 252.674 0.619522 0.4 0.6 0
C 275.468 253.029 0.378909 0.4 0.6 0
C 278.065 262.543 -0.303099 0.8 0.2 0
C 487.634 541.529 4.38829 0.2 0.8 0
C 519.996 520.011 199.258 1 0 0
C 454.746 -690.529 31.6026 0 0.6 0.4
C 487.234 540.567 4.64468 0.2 0.8 0
C -260.069 -149.872 0.775016 0 1 0
C 457.821 -183.244 -3.32037 0 0.2 0.8
C 276.257 252.018 -1.39792 0.4 0.6 0
C -259.634 -147.76 0.856076 0 1 0
C -374.886 -64.3291 27.9735 1 0 0
C -119.444 345.158 -4.96891 0.6 0.4 0
C -260.326 -147.454 0.387073 0 1 0
C -226.331 -106.821 10.22 1 0 0
C 276.95 262.275 -0.776462 0.8 0.2 0
C -181.371 -7.66707 81.4792 1 0 0
C -262.032 -148.06 0.291501 0 1 0
C 276.26 250.891 -1.07256 0.4 0.6 0
C 277.143 252.213 -0.404303 0.4 0.6 0
C -261.691 -148.95 1.58478 0 1 0
C 456.161 -691.703 32.2504 0 0.6 0.4
C -141.359 -179.5 -4.32128 0 0.8 0.2
C -261.039 -148.116 0.743375 0 1 0
C 487.747 539.731 5.46887 0.2 0.8 0
C 380.948 -389.837 24.55 1 0 0
C 274.794 251.347 0.0744645 0.4 0.6 0
C 169.158 359.181 16.8969 1 0 0
C 583.838 -127.488 16.7673 1 0 0
C -261.549 -148.176 0.56226 0 1 0
C 275.437 252.452 0.270896 0.4 0.6 0
C -259.462 -147.829 2.00556 0 1 0
C 237.653 345.479 -29.4703 1 0 0
C -176.482 94.1863 140.454 1 0 0
C 599.637 79.8465 42.709 1 0 0
C -119.094 343.876 -5.57951 0.6 0.4 0
C 487.324 539.508 3.46815 0.2 0.8 0
C -119.248 345.004 -5.44733 0.6 0.4 0
C 458.379 -184.322 -3.07369 0 0.2 0.8
C 275.514 251.614 -0.667512 0.4 0.6 0
C 273.891 252.049 -0.192125 0.4 0.6 0
C 275.853 252.396 1.29425 0.4 0.6 0
C -119.621 343.619 -5.73874 0.6 0.4 0
C -119.707 343.868 -4.67965 0.6 0.4 0
C 275.904 252.501 -1.5193 0.4 0.6 0
C -142.587 -177.709 -4.12994 0 0.8 0.2
C -259.511 -149.094 0.562036 0 1 0
C 544.781 -138.076 2.22656 0 0 1
C 276.27 252.972 -0.0834392 0.4 0.6 0
C 275.75 253.388 -0.966591 0.4 0.6 0
C 487.868 540.626 3.00396 0.2 0.8 0
C -260.494 -148.67 1.35202 0 1 0
C -141.314 -178.787 -4.6509 0 0.8 0.2
C 455.891 -692.32 32.4094 0 0.6 0.4
C -260.347 -148.964 -0.0683938 0 1 0
C 487.747 540.55 4.31899 0.2 0.8 0
C -119.091 343.841 -4.60752 0.6 0.4 0
C -119.656 344.857 -4.04519 0.6 0.4 0
C 275.356 252.547 -0.32133 0.4 0.6 0
C 236.555 -408.199 -112.215 1 0 0
C -124.629 -720.003 -39.6229 1 0 0
C -134.555 306.21 18.7792 1 0 0
C 224.521 545.238 81.0165 0 0.4 0.6
C 277.502 262.17 -1.06553 0.8 0.2 0
C -260.239 -149.511 -0.206477 0 1 0
C 455.453 -690.539 31.291 0 0.6 0.4
C 486.488 542.009 4.15638 1 0 0
C -260.231 -149.046 1.61177 0 1 0
C -118.536 344.664 -5.93632 0.6 0.4 0
C -123.962 365.005 -16.4573 1 0 0
C -141.581 -179.946 -3.82153 0 0.8 0.2
C 274.587 252.715 0.35254 0.4 0.6 0
C 275.567 251.246 -0.262194 0.4 0.6 0
C -259.395 -148.172 -0.513749 0 1 0
C -122.936 -342.92 -28.1731 1 0 0
C 3.36366 82.7128 12.0823 1 0 0
C -119.358 343.573 -5.12675 0.6 0.4 0
C 274.937 252.873 -0.507895 0.4 0.6 0
C -276.685 28.3615 -30.1331 1 0 0
C 111.576 -581.376 -25.3598 1 0 0
C 321.191 -375.057 23.3895 1 0 0
C 544.148 -137.677 3.83498 0 0 1
C -261.371 -149.535 0.11659 0 1 0
C 456.688 -183.469 -3.76882 0 0.2 0.8
C 417.135 4.87628 15.7948 1 0 0
C -261.414 -147.886 1.01497 0 1 0
C 455.21 -692.348 32.7357 0 0.6 0.4
C -142.598 -178.033 -2.93134 0 0.8 0.2
C 454.712 -691.609 31.4929 0 0.6 0.4
C -259.021 -147.856 0.0137513 0 1 0
C 488.312 538.89 3.93588 0.2 0.8 0
C -44.5707 -272.729 21.2043 1 0 0
C -118.836 344.659 -6.43991 0.6 0.4 0
C 275.311 253.136 0.953803 0.4 0.6 0
C -259.389 -148.008 0.448876 0 1 0
C -118.676 345.168 -6.16217 0.6 0.4 0
C -259.949 -148.997 2.12582 0 1 0
C 225.082 545.676 81.368 0 0.4 0.6
C -259.886 -148.07 0.273588 0 1 0
C 278.492 261.811 -1.75393 0.8 0.2 0
C 487.164 540.438 4.07936 0.2 0.8 0
C -259.378 -147.284 0.00791076 0 1 0
C -221.6 -182.384 39.9027 1 0 0
C 66.7864 536.642 -7.56818 1 0 0
C -119.093 344.731 -5.02163 0.6 0.4 0
C -259.081 -148.597 1.42906 0 1 0
C 276.917 252.693 -0.774255 0.4 0.6 0
C -119.221 345.363 -4.02846 0.6 0.4 0
C 456.703 -184.175 -3.50199 0 0.2 0.8
C 225.61 545.057 80.3908 0 0.4 0.6
C -259.569 -147.796 -0.0979302 0 1 0
C 765.509 -36.7093 -77.9438 1 0 0
C -118.191 344.054 -5.26756 0.6 0.4 0
C 275.108 252.813 0.0495449 0.4 0.6 0
C -225.89 -107.615 10.3404 1 0 0
C 277.54 261.479 -1.90304 0.8 0.2 0
C -168.341 -657.348 -49.1233 1 0 0
C -260.825 -148.396 1.68848 0 1 0
C -253.05 -198.136 -80.2277 1 0 0
C 275.85 252.554 -0.541013 0.4 0.6 0
C -260.401 -148.119 1.92127 0 1 0
C 488.011 540.098 4.07572 0.2 0.8 0
C -258.951 -148.944 0.374454 0 1 0
C -117.692 344.471 -5.44755 0.6 0.4 0
C 431.874 -192.586 -36.2718 1 0 0
C 455.588 -691.325 32.289 0 0.6 0.4
C -259.872 -148.774 0.754736 0 1 0
C 487.975 541.047 4.19472 0.2 0.8 0
C -119.743 345.169 -5.43882 0.6 0.4 0
C -118.755 344.833 -5.44828 0.6 0.4 0
C -414.316 -257.162 -137.617 1 0 0
C -119.585 344.744 -5.77375 0.6 0.4 0
C -260.618 -149.323 1.33468 0 1 0
C 455.079 -691.086 31.4547 0 0.6 0.4
C 274.899 253.181 0.504304 0.4 0.6 0
C 172.885 11.2853 -9.26239 1 0 0
C 230.558 376.614 -49.9276 1 0 0
C -259.495 -149.676 0.706371 0 1 0
C 278.798 262.052 -1.08124 0.8 0.2 0
C 15.5114 -528.738 -102.012 1 0 0
C 670.698 -90.565 -24.5937 1 0 0
C -117.941 345.582 -5.68558 0.6 0.4 0
C 424.54 575.453 -33.7615 1 0 0
C 320.84 564.282 29.2161 1 0 0
C 275.062 250.621 -0.808224 0.4 0.6 0
C -260.386 -148.648 1.92001 0 1 0
C -259.454 -148.826 -0.543644 0 1 0
C -476.232 73.6018 -49.7465 1 0 0
C -520.303 275.139 119.848 1 0 0
C 276.36 252.738 -0.597999 0.4 0.6 0
C 193.771 103.667 6.0456 1 0 0
C -118.745 344.152 -4.1174 0.6 0.4 0
C 108.18 510.121 -0.621272 1 0 0
C -142.301 -179.199 -3.93223 0 0.8 0.2
C 275.964 252.406 0.330779 0.4 0.6 0
C 276.494 252.659 -1.24394 0.4 0.6 0
C 488.921 539.701 3.80587 0.2 0.8 0
C 457.162 -183.896 -4.00018 0 0.2 0.8
C -141.047 -178.578 -3.05404 0 0.8 0.2
C -261.231 -147.454 -0.0221906 0 1 0
C 502.348 -158.801 5.58593 1 0 0
C 707.15 300.807 54.0265 1 0 0
C 274.064 251.492 -0.559469 0.4 0.6 0
C 276.175 253.578 -0.371048 0.4 0.6 0
C -260.484 -148.727 -0.915321 0 1 0
C -119.408 345.274 -5.87423 0.6 0.4 0
C -260.872 -149.605 0.418595 0 1 0
C -184.064 333.08 5.68551 1 0 0
C 278.265 260.873 -0.996711 0.8 0.2 0
C 488.18 540.702 4.6648 0.2 0.8 0
C 487.311 540.999 4.24171 0.2 0.8 0
C 276.724 253.224 -0.356588 0.4 0.6 0
C 276.473 251.602 0.248464 0.4 0.6 0
C 456.457 -691.568 31.6426 0 0.6 0.4
C -370.888 -339.106 13.2035 1 0 0
C -260.37 -148.396 2.43977 0 1 0
C -119.739 345.185 -6.78485 0.6 0.4 0
C -294.05 241.32 -5.13107 1 0 0
C 274.732 250.853 0.389663 0.4 0.6 0
C -203.292 -349.177 -16.8787 1 0 0
C -118.459 344.054 -4.71071 0.6 0.4 0
C 275.22 253.437 0.064478 0.4 0.6 0
C 274.994 251.083 -0.403034 0.4 0.6 0
C 488.223 539.494 3.96836 0.2 0.8 0
C -260.88 -148.651 2.21619 0 1 0
C 455.984 -690.425 31.7731 0 0.6 0.4
C 455.506 -692.352 31.4005 0 0.6 0.4
C -260.58 -146.75 1.13941 0 1 0
C 486.986 541.013 3.73766 0.2 0.8 0
C 487.86 539.425 3.05889 0.2 0.8 0
C 458.677 -184.336 -3.81472 0 0.2 0.8
C -142.624 -178.611 -4.80753 0 0.8 0.2
C 276.481 251.717 -0.279983 0.4 0.6 0
C -261.114 -146.985 1.37157 0 1 0
C -259.884 -147.553 1.31275 0 1 0
C 515.781 550.925 20.9161 1 0 0
C -261.786 -147.543 0.08195 0 1 0
C 225.672 545.795 80.2603 0 0.4 0.6
C 564.569 -39.8821 -89.9446 1 0 0
C 731.956 -458.038 102.979 1 0 0
C 278.664 262.679 -0.707366 0.8 0.2 0
C -181.756 -7.70764 82.2624 1 0 0
C -260.488 -147.077 1.77546 0 1 0
C -118.131 345.355 -6.2908 0.6 0.4 0
C 275.646 250.927 -1.3024 0.4 0.6 0
C -261.821 -147.77 1.38939 0 1 0
C 457.638 -184.297 -4.16712 0 0.2 0.8
C -142.793 -178.68 -3.10897 0 0.8 0.2
C 333.617 180.375 98.0775 1 0 0
C 416.286 715.183 43.3305 1 0 0
C 487.485 541.081 3.26903 0.2 0.8 0
C -119.521 344.19 -5.84895 0.6 0.4 0
C -120.298 344.876 -6.42779 0.6 0.4 0
C 274.69 252.845 0.987358 0.4 0.6 0
C -463.971 43.2604 -52.7978 1 0 0
C 438.495 686.01 51.3629 1 0 0
C -119.178 344.472 -5.51195 0.6 0.4 0
C 41.3751 -329.651 44.4186 1 0 0
C 275.843 252.136 0.787427 0.4 0.6 0
C -142.714 -179.307 -3.41628 0 0.8 0.2
C 486.576 539.87 4.96185 0.2 0.8 0
C 488.193 541.369 4.76083 0.2 0.8 0
C 455.812 -691.482 31.6923 0 0.6 0.4
C 310.02 -645.963 12.9832 1 0 0
C -261.44 -147.873 1.90813 0 1 0
C 487.65 541.028 4.76474 0.2 0.8 0
C -117.913 344.893 -5.92333 0.6 0.4 0
C 455.281 -690.262 31.9248 0 0.6 0.4
C 274.273 253.147 0.536764 0.4 0.6 0
C -260.856 -147.883 1.16223 0 1 0
C -259.976 -147.065 0.233892 0 1 0
C -118.59 345.297 -4.18169 0.6 0.4 0
C -189.314 -574.885 -17.4132 1 0 0
C 275.315 251.321 1.13661 0.4 0.6 0
C 277.571 260.972 -0.664389 0.8 0.2 0
C -261.007 -149.394 0.933056 0 1 0
C 544.293 -138.396 3.58302 0 0 1
C -106.139 634.379 6.65123 1 0 0
C 275.101 252.421 -0.81705 0.4 0.6 0
C 275.253 250.832 0.741569 0.4 0.6 0
C 487.631 539.596 3.98865 0.2 0.8 0
C -260.554 -147.254 0.833569 0 1 0
C -143.168 -178.81 -3.6687 0 0.8 0.2
C 454.638 -690.965 32.8887 0 0.6 0.4
C -259.93 -147.979 1.67655 0 1 0
C 168.64 -71.4228 1.81952 1 0 0
C -118.977 345.8 -5.02571 0.6 0.4 0
C 320.911 569.366 26.101 1 0 0
C 224.956 546.007 80.2403 0 0.4 0.6
C 275.27 251.954 -1.03339 0.4 0.6 0
C -260.877 -148.397 1.14323 0 1 0
C -118.663 344.277 -5.52018 0.6 0.4 0
C -260.729 -148.725 0.259991 0 1 0
C 224.853 544.86 80.4352 0 0.4 0.6
C -321.548 250.707 10.6213 1 0 0
C 275.447 251.476 -1.24319 0.4 0.6 0
C 487.948 539.784 3.54565 0.2 0.8 0
C -351.961 134.213 17.2212 1 0 0
C 457.8 -183.921 -3.06452 0 0.2 0.8
C 328.428 502.243 20.8639 1 0 0
C -495.599 121.683 -45.6131 1 0 0
C -260.013 -147.871 2.26618 0 1 0
C 447.476 667.722 240.573 1 0 0
C -141.476 -178.067 -4.65753 0 0.8 0.2
C -260.064 -148.465 1.56168 0 1 0
C -261.096 -148.782 -0.767519 0 1 0
C 225.113 545.354 79.9098 0 0.4 0.6
C 275.531 253.637 -0.450183 0.4 0.6 0
C 276.439 251.279 -0.647086 0.4 0.6 0
C -632.228 -15.1365 3.60914 1 0 0
C 488.221 540.277 5.25534 0.2 0.8 0
C -260.43 -147.983 -0.312536 0 1 0
C 544.492 -138.915 3.12448 0 0 1
C -343.395 609.508 -29.7692 1 0 0
C 737.972 -69.7625 -163.283 1 0 0
C 275.375 250.466 0.225978 0.4 0.6 0
C -533.841 -149.25 -22.7066 1 0 0
C 454.25 -691.757 31.08 0 0.6 0.4
C -221.422 -182.945 40.5493 1 0 0
C 454.906 -691.297 32.4476 0 0.6 0.4
C -259.957 -148.185 -0.220818 0 1 0
C 457.494 -184.868 -4.51604 0 0.2 0.8
C -119.925 346.28 -5.54308 0.6 0.4 0
C -119.668 345.325 -4.43351 0.6 0.4 0
C -20.2786 -101.964 42.8898 1 0 0
C 276.219 251.139 0.484802 0.4 0.6 0
C 473.665 -2.55496 2.81628 1 0 0
C -119.794 344.543 -6.70776 0.6 0.4 0
C -260.367 -149.358 0.320508 0 1 0
C 275.268 253.645 0.613978 0.4 0.6 0
C 139.29 136.237 40.1465 1 0 0
C -323.476 -222.033 17.419 1 0 0
C -119.89 346.072 -6.16662 0.6 0.4 0
C 486.578 540.158 4.31302 0.2 0.8 0
C -118.738 346.217 -6.0377 0.6 0.4 0
C -141.503 -178.415 -2.58946 0 0.8 0.2
C 276.8 252.48 0.767725 0.4 0.6 0
C -260.368 -147.49 -0.572622 0 1 0
C -255.522 -151.183 2.9516 1 0 0
C -119.841 346.2 -4.87273 0.6 0.4 0
C -260.566 -148.621 0.800883 0 1 0
C 276.475 251.517 0.878903 0.4 0.6 0
C 322.861 109.432 20.058 1 0 0
C 278.152 263.009 -1.10971 0.8 0.2 0
C -119.005 344.172 -5.07684 0.6 0.4 0
C -119.763 345.018 -6.22141 0.6 0.4 0
C 544.684 -137.802 3.36489 0 0 1
C -129.936 -160.684 -9.44522 1 0 0
C 274.794 252.271 1.23294 0.4 0.6 0
C 488.227 540.036 3.04559 0.2 0.8 0
C -261.04 -148.651 0.687993 0 1 0
C 454.925 -690.775 30.9256 0 0.6 0.4
C -142.205 -178.091 -4.58446 0 0.8 0.2
C 276.11 251.945 0.0496395 0.4 0.6 0
C -273.738 -123.316 8.08658 1 0 0
C -119.96 344.4 -5.55186 0.6 0.4 0
C -286.015 -187.032 -42.1866 1 0 0
C -72.7553 -510.67 -41.3785 1 0 0
C -259.455 -148.303 1.72334 0 1 0
C 281.17 203.974 9.16373 1 0 0
C -260.433 -149.887 1.30361 0 1 0
C 224.35 545.821 81.4622 0 0.4 0.6
C -141.727 -179.076 -2.77906 0 0.8 0.2
C 277.05 251.738 -0.00928766 0.4 0.6 0
C 278.18 262.295 -0.916278 0.8 0.2 0
C -533.503 -150.063 -22.5751 1 0 0
C -260.822 -148.297 -0.640133 0 1 0
C -246.212 -159.886 0.149716 1 0 0
C -261.379 -149.738 0.694113 0 1 0
C -118.55 343.777 -5.81803 0.6 0.4 0
C 457.92 -184.246 -4.78712 0 0.2 0.8
C -141.458 -179.003 -3.38667 0 0.8 0.2
C -6.90669 -419.374 -5.73326 1 0 0
C -261.953 -148.203 0.950501 0 1 0
C -258.854 -148.608 0.886814 0 1 0
C -119.396 344.291 -4.19647 0.6 0.4 0
C -260.742 -148.295 -0.0494212 0 1 0
C 224.231 546.121 80.2379 0 0.4 0.6
C 41.7748 -564.341 -6.25728 1 0 0
C -120.675 344.871 -5.40801 0.6 0.4 0
C 544.767 -138.064 4.00892 0 0 1
C -140.805 -179.09 -4.26772 0 0.8 0.2
C 274.713 251.98 -0.900085 0.4 0.6 0
C 275.428 250.688 -0.328576 0.4 0.6 0
C -260.924 -147.267 -0.45545 0 1 0
C -197.227 -159.227 -19.624 1 0 0
C -259.527 -147.22 1.0331 0 1 0
C 487.211 538.94 4.64947 0.2 0.8 0
C -118.872 346.394 -5.32535 0.6 0.4 0
C -142.851 -178.145 -3.57218 0 0.8 0.2
C 275.647 251.971 0.315952 0.4 0.6 0
C -260.385 -147.964 0.22659 0 1 0
C -409.862 -53.5405 -12.1003 1 0 0
C 275.911 251.72 1.17998 0.4 0.6 0
C -445.565 197.131 24.4121 1 0 0
C 278.251 261.642 -0.91945 0.8 0.2 0
C 148.093 -37.3474 0.275573 1 0 0
C -261.235 -148.141 1.44573 0 1 0
C 199.962 315.038 43.5493 1 0 0
C -120.211 345.073 -4.33887 0.6 0.4 0
C -119.975 344.342 -4.98164 0.6 0.4 0
C -231.617 -113.554 6.51852 1 0 0
C 470.655 511.145 -15.6969 1 0 0
C -120.114 345.718 -4.50865 0.6 0.4 0
C 457.201 -183.619 -3.31091 0 0.2 0.8
C 274.44 252.071 -0.397374 0.4 0.6 0
C -259.926 -148.902 1.22961 0 1 0
C -428.16 258.633 -74.9881 1 0 0
C -118.491 346.109 -4.89099 0.6 0.4 0
C -119.835 345.72 -5.37103 0.6 0.4 0
C 341.199 -620.644 81.9623 1 0 0
C 275.876 250.647 0.587639 0.4 0.6 0
C 276.005 251.526 -0.429234 0.4 0.6 0
C -3.80077 243.773 -14.2558 1 0 0
C 701.916 -454.809 -53.3329 1 0 0
C -223.928 296.117 18.5061 1 0 0
C -141.711 -178.53 -3.16663 0 0.8 0.2
C 274.413 252.184 0.175193 0.4 0.6 0
C -118.486 345.683 -5.92065 0.6 0.4 0
C 454.397 -691.068 31.2571 0 0.6 0.4
C -140.987 -178.409 -4.2281 0 0.8 0.2
C -261.431 -147.98 0.0551595 0 1 0
C -287.366 -153.784 0.609482 1 0 0
C 487.363 539.509 4.50114 0.2 0.8 0
C -119.453 344.387 -4.77039 0.6 0.4 0
C 480.501 -350.981 -104.555 1 0 0
C -488.026 139.187 13.4586 1 0 0
C 275.444 252.92 -1.3443 0.4 0.6 0
C -389.468 -217.715 1.21083 1 0 0
C 275.492 251.686 0.743055 0.4 0.6 0
C 274.655 253.656 0.198689 0.4 0.6 0
C 278.119 261.269 -1.54803 0.8 0.2 0
C 456.098 -692.208 31.7109 0 0.6 0.4
C 544.556 -137.605 2.73952 0 0 1
C -260.641 -149.229 -0.539359 0 1 0
C 32.7836 301.302 22.5502 1 0 0
C 454.068 109.575 -256.635 1 0 0
C 454.905 -691.469 30.8937 0 0.6 0.4
C 274.605 251.714 0.458478 0.4 0.6 0
C 276.212 252.572 0.837635 0.4 0.6 0
C -260.919 -147.893 0.23904 0 1 0
C -117.841 345.105 -5.27926 0.6 0.4 0
C -118.325 346.108 -5.5206 0.6 0.4 0
C -141.659 -177.491 -3.52539 0 0.8 0.2
C 276.008 251.662 0.583503 0.4 0.6 0
C -133.372 -241.478 52.0285 1 0 0
C -343.322 -115.875 -0.408927 1 0 0
C 478.867 530.485 45.0814 1 0 0
C -142.312 -177.715 -3.49456 0 0.8 0.2
C 274.122 252.047 -0.88363 0.4 0.6 0
C 277.443 260.961 -1.39293 0.8 0.2 0
C -533.759 -149.82 -23.3905 1 0 0
C -261.641 -149.447 1.18457 0 1 0
C -141.696 -178.4 -4.19611 0 0.8 0.2
C 274.542 252.516 -0.756731 0.4 0.6 0
C -260.531 -149.152 2.16724 0 1 0
C 488.728 541.034 3.74372 0.2 0.8 0
C -120.337 345.854 -5.77494 0.6 0.4 0
C 701.454 -126.406 -23.7495 1 0 0
C 274.798 251.872 -0.0423707 0.4 0.6 0
C -259.754 -148.258 0.753602 0 1 0
C 274.703 253.124 -0.0627627 0.4 0.6 0
C 225.33 546.015 79.6261 0 0.4 0.6
C 275.061 251.36 0.554005 0.4 0.6 0
C 228.041 204.838 -6.89216 1 0 0
C 224.263 546.822 80.3323 0 0.4 0.6
C -260.662 -147.762 0.651953 0 1 0
C -259.319 -148.76 2.07289 0 1 0
C -261.148 -148.369 0.281864 0 1 0
C 487.622 539.873 4.91041 0.2 0.8 0
C -261.531 -148.704 0.532471 0 1 0
C -382.199 -101.738 36.622 1 0 0
C -142.285 -178.675 -4.27958 0 0.8 0.2
C -241.505 -160.415 -5.96672 1 0 0
C 95.9603 -731.303 68.2066 1 0 0
C -118.236 344.725 -6.44389 0.6 0.4 0
C 275.65 252.651 0.728208 0.4 0.6 0
C 275.242 251.021 0.119496 0.4 0.6 0
C -115.889 -499.223 11.1665 1 0 0
C 454.064 -691.504 31.7238 0 0.6 0.4
C 544.787 -137.279 3.82078 0 0 1
C -407.181 371.774 20.8233 1 0 0
C 275.106 251.902 0.392784 0.4 0.6 0
C 463.376 -187.555 -24.9858 1 0 0
C 487.619 540.74 3.79324 0.2 0.8 0
C -118.025 345.66 -5.04059 0.6 0.4 0
C 455.148 -691.855 32.3817 0 0.6 0.4
C -537.356 -101.762 6.3213 1 0 0
C 275.705 253.852 0.140556 0.4 0.6 0
C -259.505 -147.921 1.34498 0 1 0
C 488.281 541.536 3.98492 0.2 0.8 0
C -119.967 344.461 -6.13669 0.6 0.4 0
C -118.927 344.445 -4.57453 0.6 0.4 0
C 275.955 250.965 -0.504853 0.4 0.6 0
C 275.311 252.21 0.753954 0.4 0.6 0
C -260.926 -148.063 2.20367 0 1 0
C -262.08 -148.65 0.497868 0 1 0
C 545.202 -137.938 2.85384 0 0 1
C 274.448 253.111 -0.682673 0.4 0.6 0
C 276.352 253.461 0.236647 0.4 0.6 0
C 277.759 261.903 -0.528072 0.8 0.2 0
C 488.811 539.564 4.83517 0.2 0.8 0
C -261.743 -149.06 0.074062 0 1 0
C 544.549 -136.91 2.64554 0 0 1
C -260.376 -147.679 1.07981 0 1 0
C 457.029 -184.847 -3.36411 0 0.2 0.8
C -261.207 -149.139 0.489381 0 1 0
C 95.3456 504.538 -171.97 1 0 0
C 455.361 -692.567 32.0633 0 0.6 0.4
C -260.983 -146.904 0.0892899 0 1 0
C 487.546 540.06 4.36756 0.2 0.8 0
C 487.752 539.228 4.97177 0.2 0.8 0
C -118.537 345.529 -4.7369 0.6 0.4 0
C 544.074 -137.845 3.12529 0 0 1
C 225.22 544.979 81.1201 0 0.4 0.6
C 273.986 251.895 0.445729 0.4 0.6 0
C -119.825 344.836 -4.72148 0.6 0.4 0
C -259.992 -149.292 0.697442 0 1 0
C 457.158 -184.212 -2.8979 0 0.2 0.8
C 276.471 252.603 0.308763 0.4 0.6 0
C -343.299 285.876 -44.8899 1 0 0
C -118.891 345.326 -5.67044 0.6 0.4 0
C -90.9473 252.925 18.2464 1 0 0
C 455.38 -691.031 32.8243 0 0.6 0.4
C -142.469 -179.098 -2.75026 0 0.8 0.2
C 511.708 -88.5109 -33.1827 1 0 0
C -259.801 -146.927 1.47451 0 1 0
C 274.93 252.35 0.189474 0.4 0.6 0
C 38.5573 -648.27 9.87265 1 0 0
C 88.1149 -510.227 -80.5569 1 0 0
C 275.533 252.136 -0.585088 0.4 0.6 0
C 445.628 133.283 -10.6326 1 0 0
C 274.634 251.548 -0.467908 0.4 0.6 0
C 223.973 545.7 80.7814 0 0.4 0.6
C -259.72 -149.362 1.69099 0 1 0
C 544.326 -137.156 3.28536 0 0 1
C -140.804 -178.87 -3.60804 0 0.8 0.2
C 275.061 251.949 -0.532328 0.4 0.6 0
C 274.935 251.749 -1.44219 0.4 0.6 0
C 538.667 -125.908 -3.90812 1 0 0
C -260.485 -149.509 0.829628 0 1 0
C 458.251 -184.958 -3.54236 0 0.2 0.8
C -142.729 -179.635 -4.05811 0 0.8 0.2
C -84.825 -144.134 -18.6585 1 0 0
C 52.4858 598.387 24.5438 1 0 0
C 486.696 540.553 4.92848 0.2 0.8 0
C -120.465 344.654 -4.75868 0.6 0.4 0
C 566.042 9.02775 -155.238 1 0 0
C -261.519 -147.961 -0.516068 0 1 0
C -118.129 344.247 -5.91132 0.6 0.4 0
C 225.737 545.552 80.9875 0 0.4 0.6
C 453.888 -284.388 15.1995 1 0 0
C 274.957 251.772 0.94457 0.4 0.6 0
C 277.167 262.154 -1.65824 0.8 0.2 0
C 473.698 -628.305 65.0145 1 0 0
C 457.373 -183.196 -3.92981 0 0.2 0.8
C -118.372 344.647 -4.37332 0.6 0.4 0
C -567.128 46.384 5.48855 1 0 0
C 487.779 539.094 3.63273 0.2 0.8 0
C 858.404 -104.763 -29.2531 1 0 0
C -129.607 528.446 86.8317 1 0 0
C 274.278 251.627 -0.0227307 0.4 0.6 0
C -99.3147 -673.528 108.982 1 0 0
C -261.846 -147.652 0.710269 0 1 0
C 225.463 546.518 80.2176 0 0.4 0.6
C -34.7405 58.5556 2.56895 1 0 0
C 274.545 251.006 -0.754881 0.4 0.6 0
C 489.082 540.008 4.34665 0.2 0.8 0
C -259.884 -148.711 -0.200237 0 1 0
C 544.046 -138.017 2.39425 0 0 1
C -142.552 -178.726 -3.71198 0 0.8 0.2
C 276.628 252.131 0.0433412 0.4 0.6 0
C 276.861 251.207 -0.192237 0.4 0.6 0
C -86.8906 -336.393 18.0272 1 0 0
C 455.724 -690.649 32.3722 0 0.6 0.4
C -141.737 -179.31 -4.86777 0 0.8 0.2
C 238.989 658.34 -141.345 1 0 0
C -259.867 -148.417 2.09075 0 1 0
C -120.131 344.841 -5.20381 0.6 0.4 0
C -118.533 345.591 -5.33064 0.6 0.4 0
C 275.738 252.271 -0.113378 0.4 0.6 0
C -259.758 -147.566 0.377305 0 1 0
C 468.677 -300.971 -55.552 1 0 0
C -156.296 645.019 11.4928 1 0 0
C 224.649 545.947 80.8204 0 0.4 0.6
C 277.584 262.777 -0.785067 0.8 0.2 0
C -142.252 -176.521 -34.8234 1 0 0
C 367.568 -494.953 -116.785 1 0 0
C -118.235 344.653 -5.44826 0.6 0.4 0
C 486.964 539.983 3.41293 0.2 0.8 0
C -118.618 345.744 -6.50787 0.6 0.4 0
C 457.384 -184.286 -3.53792 0 0.2 0.8
C -141.884 -177.716 -4.15448 0 0.8 0.2
C 276.219 252.442 -0.15403 0.4 0.6 0
C -261.251 -149.067 2.00064 0 1 0
C -259.105 -147.6 1.08796 0 1 0
C -260.101 -149.424 1.22479 0 1 0
C -130.148 718.009 1.73423 1 0 0
C 217.042 195.333 -15.7319 1 0 0
C -261.762 -149.239 0.633815 0 1 0
C 543.648 -137.36 3.37052 0 0 1
C 274.983 251.086 -1.24717 0.4 0.6 0
C 276.835 251.2 0.421245 0.4 0.6 0
C -324.317 370.357 5.74507 1 0 0
C 545.073 -138.623 2.66188 0 0 1
C -37.998 -71.4452 3.38493 1 0 0
C -142.267 -178.211 -3.92822 0 0.8 0.2
C -260.245 -147.178 1.27425 0 1 0
C 488.637 540.816 5.02508 0.2 0.8 0
C -232.356 -230.977 -51.649 1 0 0
C -260.527 -147.59 2.1438 0 1 0
C 73.6012 560.437 53.2081 1 0 0
C -261.403 -148.432 1.01206 0 1 0
C -120.805 345.528 -5.411 0.6 0.4 0
C -260.484 -146.861 0.449534 0 1 0
C 277.117 252.39 0.228182 0.4 0.6 0
C 274.74 252.235 0.667314 0.4 0.6 0
C 275.603 251.966 -1.53576 0.4 0.6 0
C -259.041 -149.236 0.892714 0 1 0
C 444.659 28.1775 -54.4003 1 0 0
C 600.966 -91.349 29.6822 1 0 0
C 457.748 -183.755 -3.76926 0 0.2 0.8
C -142.028 -179.692 -4.29165 0 0.8 0.2
C -587.799 -41.991 -224.116 1 0 0
C 461.548 425.802 -69.2013 1 0 0
C 487.066 540.022 4.64314 0.2 0.8 0
C 543.47 -137.907 2.80193 0 0 1
C 275.646 251.785 -0.202244 0.4 0.6 0
C 7.17641 -8.67839 -1.38025 1 0 0
C 277.724 262.641 -1.51242 0.8 0.2 0
C -537.024 -187.078 5.53984 1 0 0
C -260.4 -149.923 0.265694 0 1 0
C 543.906 -137.306 2.65931 0 0 1
C -142.169 -178.535 -2.70414 0 0.8 0.2
C 274.574 252.322 -1.32493 0.4 0.6 0
C 276.168 252.32 -0.916497 0.4 0.6 0
C 488.098 540.138 4.6504 0.2 0.8 0
C -260.867 -147.354 0.396118 0 1 0
C -141.084 -179.472 -3.68449 0 0.8 0.2
C 454.672 -692.372 32.2721 0 0.6 0.4
C -259.195 -149.165 1.48831 0 1 0
C -119.057 344.84 -5.91791 0.6 0.4 0
C -133.806 370.434 3.66422 1 0 0
C -118.009 344.586 -4.87062 0.6 0.4 0
C 224.57 545.817 79.6582 0 0.4 0.6
C 275.448 252.833 -0.776087 0.4 0.6 0
C 39.3324 -647.771 10.0149 1 0 0
C -119.699 343.97 -6.36542 0.6 0.4 0
C -260.753 -150.017 0.791943 0 1 0
C 277.353 262.318 -0.212055 0.8 0.2 0
C 487.508 540.13 3.75482 0.2 0.8 0
C -260.129 -147.863 0.668467 0 1 0
C 454.851 -692.68 31.6032 0 0.6 0.4
C -265.572 322.737 -44.349 1 0 0
C -119.399 344.572 -6.26861 0.6 0.4 0
C 455.109 -690.438 32.6183 0 0.6 0.4
C 486.668 540.421 3.73721 0.2 0.8 0
C -119.961 345.341 -4.94406 0.6 0.4 0
C 457.718 -184.687 -3.08466 0 0.2 0.8
C -24.6578 -343.613 -15.7075 1 0 0
C 275.272 252.076 -0.0741954 0.4 0.6 0
C -259.836 -148.589 0.296525 0 1 0
C 421.846 -160.128 27.538 1 0 0
C -160.412 -91.0406 4.27602 1 0 0
C -260.815 -149.199 0.0669177 0 1 0
C -118.546 344.13 -6.3687 0.6 0.4 0
C 275.848 253.428 0.643824 0.4 0.6 0
C 458.632 -291.318 -106.399 1 0 0
C 278.551 261.938 -0.384884 0.8 0.2 0
C -260.454 -148.148 1.40012 0 1 0
C 545.348 -137.775 3.54292 0 0 1
C -141.273 -177.871 -3.97931 0 0.8 0.2
C 276.39 253.241 -0.889988 0.4 0.6 0
C 276.588 251.473 -1.23103 0.4 0.6 0
C 487.553 540.032 3.11394 0.2 0.8 0
C -260.34 -149.014 0.977462 0 1 0
C 276.483 250.699 -0.466061 0.4 0.6 0
C 456.1 -691.003 31.3251 0 0.6 0.4
C 489.057 540.656 4.48404 0.2 0.8 0
C 255.341 254.796 30.8662 1 0 0
C 308.349 -672.073 -1.92732 1 0 0
C 274.882 252.368 -0.317512 0.4 0.6 0
C 274.649 251.246 0.923527 0.4 0.6 0
C -119.929 345.451 -5.88467 0.6 0.4 0
C -261.222 -149.216 -0.353854 0 1 0
C 544.37 -137.455 2.08097 0 0 1
C 274.468 252.629 -0.179718 0.4 0.6 0
C 228.069 205.278 -6.12739 1 0 0
C 276.438 250.689 0.170077 0.4 0.6 0
C 488.098 541.078 3.50809 0.2 0.8 0
C -261.22 -148.395 -0.267565 0 1 0
C 545.023 -138.446 3.40061 0 0 1
C 276.003 251.474 -1.47701 0.4 0.6 0
C 548.516 -265.718 28.9419 1 0 0
C 488.696 540.192 4.87417 0.2 0.8 0
C -119.299 344.88 -4.51523 0.6 0.4 0
C 457.672 -183.639 -4.48124 0 0.2 0.8
C -260.013 -147.367 0.8007 0 1 0
C -118.916 345.255 -5.11058 0.6 0.4 0
C -443.272 -518.232 -60.1817 1 0 0
C -260.319 -148.077 -0.861316 0 1 0
C -15.2855 259.811 -16.4627 1 0 0
C -397.682 462.259 -46.5954 1 0 0
C 277.011 261.5 -1.31137 0.8 0.2 0
C -119.59 345.578 -6.35083 0.6 0.4 0
C 395.784 -718.296 -0.367741 1 0 0
C -141.285 -177.969 -3.19096 0 0.8 0.2
C 276.955 251.093 -0.815239 0.4 0.6 0
C -104.016 246.245 -92.3609 1 0 0
C -261.226 -148.83 0.070261 0 1 0
C 455.588 -690.944 31.7619 0 0.6 0.4
C -141.053 -179.243 -2.97742 0 0.8 0.2
C 161.668 475.224 13.7705 1 0 0
C -260.348 -147.663 1.59738 0 1 0
C 486.751 539.46 4.45327 0.2 0.8 0
C -119.226 344.803 -6.87482 0.6 0.4 0
C -118.847 345.888 -4.362 0.6 0.4 0
C 411.297 8.66224 -10.8771 1 0 0
C 276.403 252.079 1.10173 0.4 0.6 0
C -514.015 -320.574 -39.456 1 0 0
C -119.261 346.086 -6.39413 0.6 0.4 0
C -260.629 -147.557 -0.0382379 0 1 0
C 275.915 251.161 0.999187 0.4 0.6 0
